# DDEC6 charges by PACMAN v1.3 (https://github.com/mtap-research/PACMAN-charge/)
data_Cu-BTC_pacman
_symmetry_space_group_name_H-M   'P 1'
_cell_length_a   26.34300000
_cell_length_b   26.34300000
_cell_length_c   26.34300000
_cell_angle_alpha   90.00000000
_cell_angle_beta   90.00000000
_cell_angle_gamma   90.00000000
_symmetry_Int_Tables_number   1
_chemical_formula_structural   CuH2(C3O2)2
_chemical_formula_sum   'Cu48 H96 C288 O192'
_cell_volume   18280.82097561
_cell_formula_units_Z   48
loop_
 _symmetry_equiv_pos_site_id
 _symmetry_equiv_pos_as_xyz
  1  'x, y, z'
loop_
 _atom_site_type_symbol
 _atom_site_label
 _atom_site_symmetry_multiplicity
 _atom_site_fract_x
 _atom_site_fract_y
 _atom_site_fract_z
 _atom_site_occupancy
 _atom_site_charge
<<<<<<< HEAD
Cu  Cu1  1  0.28530000  0.28530000  0.00000000  1.0 0.8579796552
Cu  Cu2  1  0.71470000  0.71470000  0.00000000  1.0 0.8579796552
Cu  Cu3  1  0.71470000  0.28530000  0.00000000  1.0 0.8579796552
Cu  Cu4  1  0.28530000  0.71470000  0.00000000  1.0 0.8579796552
Cu  Cu5  1  0.00000000  0.28530000  0.28530000  1.0 0.8579796552
Cu  Cu6  1  0.00000000  0.71470000  0.71470000  1.0 0.8579796552
Cu  Cu7  1  0.00000000  0.71470000  0.28530000  1.0 0.8579796552
Cu  Cu8  1  0.00000000  0.28530000  0.71470000  1.0 0.8579796552
Cu  Cu9  1  0.28530000  0.00000000  0.28530000  1.0 0.8579796552
Cu  Cu10  1  0.71470000  0.00000000  0.71470000  1.0 0.8579796552
Cu  Cu11  1  0.28530000  0.00000000  0.71470000  1.0 0.8579796552
Cu  Cu12  1  0.71470000  0.00000000  0.28530000  1.0 0.8579796552
Cu  Cu13  1  0.28530000  0.78530000  0.50000000  1.0 0.8579796552
Cu  Cu14  1  0.71470000  0.21470000  0.50000000  1.0 0.8579796552
Cu  Cu15  1  0.71470000  0.78530000  0.50000000  1.0 0.8579796552
Cu  Cu16  1  0.28530000  0.21470000  0.50000000  1.0 0.8579796552
Cu  Cu17  1  0.00000000  0.78530000  0.78530000  1.0 0.8579796552
Cu  Cu18  1  0.00000000  0.21470000  0.21470000  1.0 0.8579796552
Cu  Cu19  1  0.00000000  0.21470000  0.78530000  1.0 0.8579796552
Cu  Cu20  1  0.00000000  0.78530000  0.21470000  1.0 0.8579796552
Cu  Cu21  1  0.28530000  0.50000000  0.78530000  1.0 0.8579796552
Cu  Cu22  1  0.71470000  0.50000000  0.21470000  1.0 0.8579796552
Cu  Cu23  1  0.28530000  0.50000000  0.21470000  1.0 0.8579796552
Cu  Cu24  1  0.71470000  0.50000000  0.78530000  1.0 0.8579796552
Cu  Cu25  1  0.78530000  0.28530000  0.50000000  1.0 0.8579796552
Cu  Cu26  1  0.21470000  0.71470000  0.50000000  1.0 0.8579796552
Cu  Cu27  1  0.21470000  0.28530000  0.50000000  1.0 0.8579796552
Cu  Cu28  1  0.78530000  0.71470000  0.50000000  1.0 0.8579796552
Cu  Cu29  1  0.50000000  0.28530000  0.78530000  1.0 0.8579796552
Cu  Cu30  1  0.50000000  0.71470000  0.21470000  1.0 0.8579796552
Cu  Cu31  1  0.50000000  0.71470000  0.78530000  1.0 0.8579796552
Cu  Cu32  1  0.50000000  0.28530000  0.21470000  1.0 0.8579796552
Cu  Cu33  1  0.78530000  0.00000000  0.78530000  1.0 0.8579796552
Cu  Cu34  1  0.21470000  0.00000000  0.21470000  1.0 0.8579796552
Cu  Cu35  1  0.78530000  0.00000000  0.21470000  1.0 0.8579796552
Cu  Cu36  1  0.21470000  0.00000000  0.78530000  1.0 0.8579796552
Cu  Cu37  1  0.78530000  0.78530000  0.00000000  1.0 0.8579796552
Cu  Cu38  1  0.21470000  0.21470000  0.00000000  1.0 0.8579796552
Cu  Cu39  1  0.21470000  0.78530000  0.00000000  1.0 0.8579796552
Cu  Cu40  1  0.78530000  0.21470000  0.00000000  1.0 0.8579796552
Cu  Cu41  1  0.50000000  0.78530000  0.28530000  1.0 0.8579796552
Cu  Cu42  1  0.50000000  0.21470000  0.71470000  1.0 0.8579796552
Cu  Cu43  1  0.50000000  0.21470000  0.28530000  1.0 0.8579796552
Cu  Cu44  1  0.50000000  0.78530000  0.71470000  1.0 0.8579796552
Cu  Cu45  1  0.78530000  0.50000000  0.28530000  1.0 0.8579796552
Cu  Cu46  1  0.21470000  0.50000000  0.71470000  1.0 0.8579796552
Cu  Cu47  1  0.78530000  0.50000000  0.71470000  1.0 0.8579796552
Cu  Cu48  1  0.21470000  0.50000000  0.28530000  1.0 0.8579796552
H  H1  1  0.38020000  0.22800000  0.88020000  1.0 0.1357694814
H  H2  1  0.61980000  0.77200000  0.88020000  1.0 0.1357694814
H  H3  1  0.61980000  0.22800000  0.11980000  1.0 0.1357694814
H  H4  1  0.38020000  0.77200000  0.11980000  1.0 0.1357694814
H  H5  1  0.88020000  0.38020000  0.22800000  1.0 0.1357694814
H  H6  1  0.88020000  0.61980000  0.77200000  1.0 0.1357694814
H  H7  1  0.11980000  0.61980000  0.22800000  1.0 0.1357694814
H  H8  1  0.11980000  0.38020000  0.77200000  1.0 0.1357694814
H  H9  1  0.22800000  0.88020000  0.38020000  1.0 0.1357694814
H  H10  1  0.77200000  0.88020000  0.61980000  1.0 0.1357694814
H  H11  1  0.22800000  0.11980000  0.61980000  1.0 0.1357694814
H  H12  1  0.77200000  0.11980000  0.38020000  1.0 0.1357694814
H  H13  1  0.22800000  0.38020000  0.11980000  1.0 0.1357694814
H  H14  1  0.77200000  0.61980000  0.11980000  1.0 0.1357694814
H  H15  1  0.22800000  0.61980000  0.88020000  1.0 0.1357694814
H  H16  1  0.77200000  0.38020000  0.88020000  1.0 0.1357694814
H  H17  1  0.38020000  0.88020000  0.77200000  1.0 0.1357694814
H  H18  1  0.61980000  0.88020000  0.22800000  1.0 0.1357694814
H  H19  1  0.61980000  0.11980000  0.77200000  1.0 0.1357694814
H  H20  1  0.38020000  0.11980000  0.22800000  1.0 0.1357694814
H  H21  1  0.88020000  0.22800000  0.61980000  1.0 0.1357694814
H  H22  1  0.88020000  0.77200000  0.38020000  1.0 0.1357694814
H  H23  1  0.11980000  0.22800000  0.38020000  1.0 0.1357694814
H  H24  1  0.11980000  0.77200000  0.61980000  1.0 0.1357694814
H  H25  1  0.61980000  0.77200000  0.11980000  1.0 0.1357694814
H  H26  1  0.38020000  0.22800000  0.11980000  1.0 0.1357694814
H  H27  1  0.38020000  0.77200000  0.88020000  1.0 0.1357694814
H  H28  1  0.61980000  0.22800000  0.88020000  1.0 0.1357694814
H  H29  1  0.11980000  0.61980000  0.77200000  1.0 0.1357694814
H  H30  1  0.11980000  0.38020000  0.22800000  1.0 0.1357694814
H  H31  1  0.88020000  0.38020000  0.77200000  1.0 0.1357694814
H  H32  1  0.88020000  0.61980000  0.22800000  1.0 0.1357694814
H  H33  1  0.77200000  0.11980000  0.61980000  1.0 0.1357694814
H  H34  1  0.22800000  0.11980000  0.38020000  1.0 0.1357694814
H  H35  1  0.77200000  0.88020000  0.38020000  1.0 0.1357694814
H  H36  1  0.22800000  0.88020000  0.61980000  1.0 0.1357694814
H  H37  1  0.77200000  0.61980000  0.88020000  1.0 0.1357694814
H  H38  1  0.22800000  0.38020000  0.88020000  1.0 0.1357694814
H  H39  1  0.77200000  0.38020000  0.11980000  1.0 0.1357694814
H  H40  1  0.22800000  0.61980000  0.11980000  1.0 0.1357694814
H  H41  1  0.61980000  0.11980000  0.22800000  1.0 0.1357694814
H  H42  1  0.38020000  0.11980000  0.77200000  1.0 0.1357694814
H  H43  1  0.38020000  0.88020000  0.22800000  1.0 0.1357694814
H  H44  1  0.61980000  0.88020000  0.77200000  1.0 0.1357694814
H  H45  1  0.11980000  0.77200000  0.38020000  1.0 0.1357694814
H  H46  1  0.11980000  0.22800000  0.61980000  1.0 0.1357694814
H  H47  1  0.88020000  0.77200000  0.61980000  1.0 0.1357694814
H  H48  1  0.88020000  0.22800000  0.38020000  1.0 0.1357694814
H  H49  1  0.38020000  0.72800000  0.38020000  1.0 0.1357694814
H  H50  1  0.61980000  0.27200000  0.38020000  1.0 0.1357694814
H  H51  1  0.61980000  0.72800000  0.61980000  1.0 0.1357694814
H  H52  1  0.38020000  0.27200000  0.61980000  1.0 0.1357694814
H  H53  1  0.88020000  0.88020000  0.72800000  1.0 0.1357694814
H  H54  1  0.88020000  0.11980000  0.27200000  1.0 0.1357694814
H  H55  1  0.11980000  0.11980000  0.72800000  1.0 0.1357694814
H  H56  1  0.11980000  0.88020000  0.27200000  1.0 0.1357694814
H  H57  1  0.38020000  0.38020000  0.27200000  1.0 0.1357694814
H  H58  1  0.61980000  0.38020000  0.72800000  1.0 0.1357694814
H  H59  1  0.61980000  0.61980000  0.27200000  1.0 0.1357694814
H  H60  1  0.38020000  0.61980000  0.72800000  1.0 0.1357694814
H  H61  1  0.88020000  0.72800000  0.11980000  1.0 0.1357694814
H  H62  1  0.88020000  0.27200000  0.88020000  1.0 0.1357694814
H  H63  1  0.11980000  0.72800000  0.88020000  1.0 0.1357694814
H  H64  1  0.11980000  0.27200000  0.11980000  1.0 0.1357694814
H  H65  1  0.61980000  0.27200000  0.61980000  1.0 0.1357694814
H  H66  1  0.38020000  0.72800000  0.61980000  1.0 0.1357694814
H  H67  1  0.38020000  0.27200000  0.38020000  1.0 0.1357694814
H  H68  1  0.61980000  0.72800000  0.38020000  1.0 0.1357694814
H  H69  1  0.11980000  0.11980000  0.27200000  1.0 0.1357694814
H  H70  1  0.11980000  0.88020000  0.72800000  1.0 0.1357694814
H  H71  1  0.88020000  0.88020000  0.27200000  1.0 0.1357694814
H  H72  1  0.88020000  0.11980000  0.72800000  1.0 0.1357694814
H  H73  1  0.61980000  0.61980000  0.72800000  1.0 0.1357694814
H  H74  1  0.38020000  0.61980000  0.27200000  1.0 0.1357694814
H  H75  1  0.38020000  0.38020000  0.72800000  1.0 0.1357694814
H  H76  1  0.61980000  0.38020000  0.27200000  1.0 0.1357694814
H  H77  1  0.11980000  0.27200000  0.88020000  1.0 0.1357694814
H  H78  1  0.11980000  0.72800000  0.11980000  1.0 0.1357694814
H  H79  1  0.88020000  0.27200000  0.11980000  1.0 0.1357694814
H  H80  1  0.88020000  0.72800000  0.88020000  1.0 0.1357694814
H  H81  1  0.72800000  0.88020000  0.88020000  1.0 0.1357694814
H  H82  1  0.27200000  0.88020000  0.11980000  1.0 0.1357694814
H  H83  1  0.72800000  0.11980000  0.11980000  1.0 0.1357694814
H  H84  1  0.27200000  0.11980000  0.88020000  1.0 0.1357694814
H  H85  1  0.72800000  0.38020000  0.61980000  1.0 0.1357694814
H  H86  1  0.27200000  0.61980000  0.61980000  1.0 0.1357694814
H  H87  1  0.72800000  0.61980000  0.38020000  1.0 0.1357694814
H  H88  1  0.27200000  0.38020000  0.38020000  1.0 0.1357694814
H  H89  1  0.27200000  0.11980000  0.11980000  1.0 0.1357694814
H  H90  1  0.72800000  0.11980000  0.88020000  1.0 0.1357694814
H  H91  1  0.27200000  0.88020000  0.88020000  1.0 0.1357694814
H  H92  1  0.72800000  0.88020000  0.11980000  1.0 0.1357694814
H  H93  1  0.27200000  0.61980000  0.38020000  1.0 0.1357694814
H  H94  1  0.72800000  0.38020000  0.38020000  1.0 0.1357694814
H  H95  1  0.27200000  0.38020000  0.61980000  1.0 0.1357694814
H  H96  1  0.72800000  0.61980000  0.61980000  1.0 0.1357694814
C  C1  1  0.29680000  0.20320000  0.93130000  1.0 0.5846787045
C  C2  1  0.70320000  0.79680000  0.93130000  1.0 0.5846787045
C  C3  1  0.70320000  0.20320000  0.06870000  1.0 0.5846787045
C  C4  1  0.29680000  0.79680000  0.06870000  1.0 0.5846787045
C  C5  1  0.93130000  0.29680000  0.20320000  1.0 0.5846787045
C  C6  1  0.93130000  0.70320000  0.79680000  1.0 0.5846787045
C  C7  1  0.06870000  0.70320000  0.20320000  1.0 0.5846787045
C  C8  1  0.06870000  0.29680000  0.79680000  1.0 0.5846787045
C  C9  1  0.20320000  0.93130000  0.29680000  1.0 0.5846787045
C  C10  1  0.79680000  0.93130000  0.70320000  1.0 0.5846787045
C  C11  1  0.20320000  0.06870000  0.70320000  1.0 0.5846787045
C  C12  1  0.79680000  0.06870000  0.29680000  1.0 0.5846787045
C  C13  1  0.20320000  0.29680000  0.06870000  1.0 0.5846787045
C  C14  1  0.79680000  0.70320000  0.06870000  1.0 0.5846787045
C  C15  1  0.20320000  0.70320000  0.93130000  1.0 0.5846787045
C  C16  1  0.79680000  0.29680000  0.93130000  1.0 0.5846787045
C  C17  1  0.29680000  0.93130000  0.79680000  1.0 0.5846787045
C  C18  1  0.70320000  0.93130000  0.20320000  1.0 0.5846787045
C  C19  1  0.70320000  0.06870000  0.79680000  1.0 0.5846787045
C  C20  1  0.29680000  0.06870000  0.20320000  1.0 0.5846787045
C  C21  1  0.93130000  0.20320000  0.70320000  1.0 0.5846787045
C  C22  1  0.93130000  0.79680000  0.29680000  1.0 0.5846787045
C  C23  1  0.06870000  0.20320000  0.29680000  1.0 0.5846787045
C  C24  1  0.06870000  0.79680000  0.70320000  1.0 0.5846787045
C  C25  1  0.70320000  0.79680000  0.06870000  1.0 0.5846787045
C  C26  1  0.29680000  0.20320000  0.06870000  1.0 0.5846787045
C  C27  1  0.29680000  0.79680000  0.93130000  1.0 0.5846787045
C  C28  1  0.70320000  0.20320000  0.93130000  1.0 0.5846787045
C  C29  1  0.06870000  0.70320000  0.79680000  1.0 0.5846787045
C  C30  1  0.06870000  0.29680000  0.20320000  1.0 0.5846787045
C  C31  1  0.93130000  0.29680000  0.79680000  1.0 0.5846787045
C  C32  1  0.93130000  0.70320000  0.20320000  1.0 0.5846787045
C  C33  1  0.79680000  0.06870000  0.70320000  1.0 0.5846787045
C  C34  1  0.20320000  0.06870000  0.29680000  1.0 0.5846787045
C  C35  1  0.79680000  0.93130000  0.29680000  1.0 0.5846787045
C  C36  1  0.20320000  0.93130000  0.70320000  1.0 0.5846787045
C  C37  1  0.79680000  0.70320000  0.93130000  1.0 0.5846787045
C  C38  1  0.20320000  0.29680000  0.93130000  1.0 0.5846787045
C  C39  1  0.79680000  0.29680000  0.06870000  1.0 0.5846787045
C  C40  1  0.20320000  0.70320000  0.06870000  1.0 0.5846787045
C  C41  1  0.70320000  0.06870000  0.20320000  1.0 0.5846787045
C  C42  1  0.29680000  0.06870000  0.79680000  1.0 0.5846787045
C  C43  1  0.29680000  0.93130000  0.20320000  1.0 0.5846787045
C  C44  1  0.70320000  0.93130000  0.79680000  1.0 0.5846787045
C  C45  1  0.06870000  0.79680000  0.29680000  1.0 0.5846787045
C  C46  1  0.06870000  0.20320000  0.70320000  1.0 0.5846787045
C  C47  1  0.93130000  0.79680000  0.70320000  1.0 0.5846787045
C  C48  1  0.93130000  0.20320000  0.29680000  1.0 0.5846787045
C  C49  1  0.29680000  0.70320000  0.43130000  1.0 0.5846787045
C  C50  1  0.70320000  0.29680000  0.43130000  1.0 0.5846787045
C  C51  1  0.70320000  0.70320000  0.56870000  1.0 0.5846787045
C  C52  1  0.29680000  0.29680000  0.56870000  1.0 0.5846787045
C  C53  1  0.20320000  0.43130000  0.79680000  1.0 0.5846787045
C  C54  1  0.79680000  0.43130000  0.20320000  1.0 0.5846787045
C  C55  1  0.20320000  0.56870000  0.20320000  1.0 0.5846787045
C  C56  1  0.79680000  0.56870000  0.79680000  1.0 0.5846787045
C  C57  1  0.20320000  0.79680000  0.56870000  1.0 0.5846787045
C  C58  1  0.79680000  0.20320000  0.56870000  1.0 0.5846787045
C  C59  1  0.20320000  0.20320000  0.43130000  1.0 0.5846787045
C  C60  1  0.79680000  0.79680000  0.43130000  1.0 0.5846787045
C  C61  1  0.29680000  0.43130000  0.29680000  1.0 0.5846787045
C  C62  1  0.70320000  0.43130000  0.70320000  1.0 0.5846787045
C  C63  1  0.70320000  0.56870000  0.29680000  1.0 0.5846787045
C  C64  1  0.29680000  0.56870000  0.70320000  1.0 0.5846787045
C  C65  1  0.70320000  0.29680000  0.56870000  1.0 0.5846787045
C  C66  1  0.29680000  0.70320000  0.56870000  1.0 0.5846787045
C  C67  1  0.29680000  0.29680000  0.43130000  1.0 0.5846787045
C  C68  1  0.70320000  0.70320000  0.43130000  1.0 0.5846787045
C  C69  1  0.79680000  0.56870000  0.20320000  1.0 0.5846787045
C  C70  1  0.20320000  0.56870000  0.79680000  1.0 0.5846787045
C  C71  1  0.79680000  0.43130000  0.79680000  1.0 0.5846787045
C  C72  1  0.20320000  0.43130000  0.20320000  1.0 0.5846787045
C  C73  1  0.79680000  0.20320000  0.43130000  1.0 0.5846787045
C  C74  1  0.20320000  0.79680000  0.43130000  1.0 0.5846787045
C  C75  1  0.79680000  0.79680000  0.56870000  1.0 0.5846787045
C  C76  1  0.20320000  0.20320000  0.56870000  1.0 0.5846787045
C  C77  1  0.70320000  0.56870000  0.70320000  1.0 0.5846787045
C  C78  1  0.29680000  0.56870000  0.29680000  1.0 0.5846787045
C  C79  1  0.29680000  0.43130000  0.70320000  1.0 0.5846787045
C  C80  1  0.70320000  0.43130000  0.29680000  1.0 0.5846787045
C  C81  1  0.43130000  0.29680000  0.70320000  1.0 0.5846787045
C  C82  1  0.43130000  0.70320000  0.29680000  1.0 0.5846787045
C  C83  1  0.56870000  0.70320000  0.70320000  1.0 0.5846787045
C  C84  1  0.56870000  0.29680000  0.29680000  1.0 0.5846787045
C  C85  1  0.43130000  0.20320000  0.20320000  1.0 0.5846787045
C  C86  1  0.43130000  0.79680000  0.79680000  1.0 0.5846787045
C  C87  1  0.56870000  0.20320000  0.79680000  1.0 0.5846787045
C  C88  1  0.56870000  0.79680000  0.20320000  1.0 0.5846787045
C  C89  1  0.56870000  0.70320000  0.29680000  1.0 0.5846787045
C  C90  1  0.56870000  0.29680000  0.70320000  1.0 0.5846787045
C  C91  1  0.43130000  0.29680000  0.29680000  1.0 0.5846787045
C  C92  1  0.43130000  0.70320000  0.70320000  1.0 0.5846787045
C  C93  1  0.56870000  0.79680000  0.79680000  1.0 0.5846787045
C  C94  1  0.56870000  0.20320000  0.20320000  1.0 0.5846787045
C  C95  1  0.43130000  0.79680000  0.20320000  1.0 0.5846787045
C  C96  1  0.43130000  0.20320000  0.79680000  1.0 0.5846787045
C  C97  1  0.32200000  0.17800000  0.88700000  1.0 -0.0326015952
C  C98  1  0.67800000  0.82200000  0.88700000  1.0 -0.0326015952
C  C99  1  0.67800000  0.17800000  0.11300000  1.0 -0.0326015952
C  C100  1  0.32200000  0.82200000  0.11300000  1.0 -0.0326015952
C  C101  1  0.88700000  0.32200000  0.17800000  1.0 -0.0326015952
C  C102  1  0.88700000  0.67800000  0.82200000  1.0 -0.0326015952
C  C103  1  0.11300000  0.67800000  0.17800000  1.0 -0.0326015952
C  C104  1  0.11300000  0.32200000  0.82200000  1.0 -0.0326015952
C  C105  1  0.17800000  0.88700000  0.32200000  1.0 -0.0326015952
C  C106  1  0.82200000  0.88700000  0.67800000  1.0 -0.0326015952
C  C107  1  0.17800000  0.11300000  0.67800000  1.0 -0.0326015952
C  C108  1  0.82200000  0.11300000  0.32200000  1.0 -0.0326015952
C  C109  1  0.17800000  0.32200000  0.11300000  1.0 -0.0326015952
C  C110  1  0.82200000  0.67800000  0.11300000  1.0 -0.0326015952
C  C111  1  0.17800000  0.67800000  0.88700000  1.0 -0.0326015952
C  C112  1  0.82200000  0.32200000  0.88700000  1.0 -0.0326015952
C  C113  1  0.32200000  0.88700000  0.82200000  1.0 -0.0326015952
C  C114  1  0.67800000  0.88700000  0.17800000  1.0 -0.0326015952
C  C115  1  0.67800000  0.11300000  0.82200000  1.0 -0.0326015952
C  C116  1  0.32200000  0.11300000  0.17800000  1.0 -0.0326015952
C  C117  1  0.88700000  0.17800000  0.67800000  1.0 -0.0326015952
C  C118  1  0.88700000  0.82200000  0.32200000  1.0 -0.0326015952
C  C119  1  0.11300000  0.17800000  0.32200000  1.0 -0.0326015952
C  C120  1  0.11300000  0.82200000  0.67800000  1.0 -0.0326015952
C  C121  1  0.67800000  0.82200000  0.11300000  1.0 -0.0326015952
C  C122  1  0.32200000  0.17800000  0.11300000  1.0 -0.0326015952
C  C123  1  0.32200000  0.82200000  0.88700000  1.0 -0.0326015952
C  C124  1  0.67800000  0.17800000  0.88700000  1.0 -0.0326015952
C  C125  1  0.11300000  0.67800000  0.82200000  1.0 -0.0326015952
C  C126  1  0.11300000  0.32200000  0.17800000  1.0 -0.0326015952
C  C127  1  0.88700000  0.32200000  0.82200000  1.0 -0.0326015952
C  C128  1  0.88700000  0.67800000  0.17800000  1.0 -0.0326015952
C  C129  1  0.82200000  0.11300000  0.67800000  1.0 -0.0326015952
C  C130  1  0.17800000  0.11300000  0.32200000  1.0 -0.0326015952
C  C131  1  0.82200000  0.88700000  0.32200000  1.0 -0.0326015952
C  C132  1  0.17800000  0.88700000  0.67800000  1.0 -0.0326015952
C  C133  1  0.82200000  0.67800000  0.88700000  1.0 -0.0326015952
C  C134  1  0.17800000  0.32200000  0.88700000  1.0 -0.0326015952
C  C135  1  0.82200000  0.32200000  0.11300000  1.0 -0.0326015952
C  C136  1  0.17800000  0.67800000  0.11300000  1.0 -0.0326015952
C  C137  1  0.67800000  0.11300000  0.17800000  1.0 -0.0326015952
C  C138  1  0.32200000  0.11300000  0.82200000  1.0 -0.0326015952
C  C139  1  0.32200000  0.88700000  0.17800000  1.0 -0.0326015952
C  C140  1  0.67800000  0.88700000  0.82200000  1.0 -0.0326015952
C  C141  1  0.11300000  0.82200000  0.32200000  1.0 -0.0326015952
C  C142  1  0.11300000  0.17800000  0.67800000  1.0 -0.0326015952
C  C143  1  0.88700000  0.82200000  0.67800000  1.0 -0.0326015952
C  C144  1  0.88700000  0.17800000  0.32200000  1.0 -0.0326015952
C  C145  1  0.32200000  0.67800000  0.38700000  1.0 -0.0326015952
C  C146  1  0.67800000  0.32200000  0.38700000  1.0 -0.0326015952
C  C147  1  0.67800000  0.67800000  0.61300000  1.0 -0.0326015952
C  C148  1  0.32200000  0.32200000  0.61300000  1.0 -0.0326015952
C  C149  1  0.17800000  0.38700000  0.82200000  1.0 -0.0326015952
C  C150  1  0.82200000  0.38700000  0.17800000  1.0 -0.0326015952
C  C151  1  0.17800000  0.61300000  0.17800000  1.0 -0.0326015952
C  C152  1  0.82200000  0.61300000  0.82200000  1.0 -0.0326015952
C  C153  1  0.17800000  0.82200000  0.61300000  1.0 -0.0326015952
C  C154  1  0.82200000  0.17800000  0.61300000  1.0 -0.0326015952
C  C155  1  0.17800000  0.17800000  0.38700000  1.0 -0.0326015952
C  C156  1  0.82200000  0.82200000  0.38700000  1.0 -0.0326015952
C  C157  1  0.32200000  0.38700000  0.32200000  1.0 -0.0326015952
C  C158  1  0.67800000  0.38700000  0.67800000  1.0 -0.0326015952
C  C159  1  0.67800000  0.61300000  0.32200000  1.0 -0.0326015952
C  C160  1  0.32200000  0.61300000  0.67800000  1.0 -0.0326015952
C  C161  1  0.67800000  0.32200000  0.61300000  1.0 -0.0326015952
C  C162  1  0.32200000  0.67800000  0.61300000  1.0 -0.0326015952
C  C163  1  0.32200000  0.32200000  0.38700000  1.0 -0.0326015952
C  C164  1  0.67800000  0.67800000  0.38700000  1.0 -0.0326015952
C  C165  1  0.82200000  0.61300000  0.17800000  1.0 -0.0326015952
C  C166  1  0.17800000  0.61300000  0.82200000  1.0 -0.0326015952
C  C167  1  0.82200000  0.38700000  0.82200000  1.0 -0.0326015952
C  C168  1  0.17800000  0.38700000  0.17800000  1.0 -0.0326015952
C  C169  1  0.82200000  0.17800000  0.38700000  1.0 -0.0326015952
C  C170  1  0.17800000  0.82200000  0.38700000  1.0 -0.0326015952
C  C171  1  0.82200000  0.82200000  0.61300000  1.0 -0.0326015952
C  C172  1  0.17800000  0.17800000  0.61300000  1.0 -0.0326015952
C  C173  1  0.67800000  0.61300000  0.67800000  1.0 -0.0326015952
C  C174  1  0.32200000  0.61300000  0.32200000  1.0 -0.0326015952
C  C175  1  0.32200000  0.38700000  0.67800000  1.0 -0.0326015952
C  C176  1  0.67800000  0.38700000  0.32200000  1.0 -0.0326015952
C  C177  1  0.38700000  0.32200000  0.67800000  1.0 -0.0326015952
C  C178  1  0.38700000  0.67800000  0.32200000  1.0 -0.0326015952
C  C179  1  0.61300000  0.67800000  0.67800000  1.0 -0.0326015952
C  C180  1  0.61300000  0.32200000  0.32200000  1.0 -0.0326015952
C  C181  1  0.38700000  0.17800000  0.17800000  1.0 -0.0326015952
C  C182  1  0.38700000  0.82200000  0.82200000  1.0 -0.0326015952
C  C183  1  0.61300000  0.17800000  0.82200000  1.0 -0.0326015952
C  C184  1  0.61300000  0.82200000  0.17800000  1.0 -0.0326015952
C  C185  1  0.61300000  0.67800000  0.32200000  1.0 -0.0326015952
C  C186  1  0.61300000  0.32200000  0.67800000  1.0 -0.0326015952
C  C187  1  0.38700000  0.32200000  0.32200000  1.0 -0.0326015952
C  C188  1  0.38700000  0.67800000  0.67800000  1.0 -0.0326015952
C  C189  1  0.61300000  0.82200000  0.82200000  1.0 -0.0326015952
C  C190  1  0.61300000  0.17800000  0.17800000  1.0 -0.0326015952
C  C191  1  0.38700000  0.82200000  0.17800000  1.0 -0.0326015952
C  C192  1  0.38700000  0.17800000  0.82200000  1.0 -0.0326015952
C  C193  1  0.36550000  0.19940000  0.86550000  1.0 -0.0851968503
C  C194  1  0.63450000  0.80060000  0.86550000  1.0 -0.0851968503
C  C195  1  0.63450000  0.19940000  0.13450000  1.0 -0.0851968503
C  C196  1  0.36550000  0.80060000  0.13450000  1.0 -0.0851968503
C  C197  1  0.86550000  0.36550000  0.19940000  1.0 -0.0851968503
C  C198  1  0.86550000  0.63450000  0.80060000  1.0 -0.0851968503
C  C199  1  0.13450000  0.63450000  0.19940000  1.0 -0.0851968503
C  C200  1  0.13450000  0.36550000  0.80060000  1.0 -0.0851968503
C  C201  1  0.19940000  0.86550000  0.36550000  1.0 -0.0851968503
C  C202  1  0.80060000  0.86550000  0.63450000  1.0 -0.0851968503
C  C203  1  0.19940000  0.13450000  0.63450000  1.0 -0.0851968503
C  C204  1  0.80060000  0.13450000  0.36550000  1.0 -0.0851968503
C  C205  1  0.19940000  0.36550000  0.13450000  1.0 -0.0851968503
C  C206  1  0.80060000  0.63450000  0.13450000  1.0 -0.0851968503
C  C207  1  0.19940000  0.63450000  0.86550000  1.0 -0.0851968503
C  C208  1  0.80060000  0.36550000  0.86550000  1.0 -0.0851968503
C  C209  1  0.36550000  0.86550000  0.80060000  1.0 -0.0851968503
C  C210  1  0.63450000  0.86550000  0.19940000  1.0 -0.0851968503
C  C211  1  0.63450000  0.13450000  0.80060000  1.0 -0.0851968503
C  C212  1  0.36550000  0.13450000  0.19940000  1.0 -0.0851968503
C  C213  1  0.86550000  0.19940000  0.63450000  1.0 -0.0851968503
C  C214  1  0.86550000  0.80060000  0.36550000  1.0 -0.0851968503
C  C215  1  0.13450000  0.19940000  0.36550000  1.0 -0.0851968503
C  C216  1  0.13450000  0.80060000  0.63450000  1.0 -0.0851968503
C  C217  1  0.63450000  0.80060000  0.13450000  1.0 -0.0851968503
C  C218  1  0.36550000  0.19940000  0.13450000  1.0 -0.0851968503
C  C219  1  0.36550000  0.80060000  0.86550000  1.0 -0.0851968503
C  C220  1  0.63450000  0.19940000  0.86550000  1.0 -0.0851968503
C  C221  1  0.13450000  0.63450000  0.80060000  1.0 -0.0851968503
C  C222  1  0.13450000  0.36550000  0.19940000  1.0 -0.0851968503
C  C223  1  0.86550000  0.36550000  0.80060000  1.0 -0.0851968503
C  C224  1  0.86550000  0.63450000  0.19940000  1.0 -0.0851968503
C  C225  1  0.80060000  0.13450000  0.63450000  1.0 -0.0851968503
C  C226  1  0.19940000  0.13450000  0.36550000  1.0 -0.0851968503
C  C227  1  0.80060000  0.86550000  0.36550000  1.0 -0.0851968503
C  C228  1  0.19940000  0.86550000  0.63450000  1.0 -0.0851968503
C  C229  1  0.80060000  0.63450000  0.86550000  1.0 -0.0851968503
C  C230  1  0.19940000  0.36550000  0.86550000  1.0 -0.0851968503
C  C231  1  0.80060000  0.36550000  0.13450000  1.0 -0.0851968503
C  C232  1  0.19940000  0.63450000  0.13450000  1.0 -0.0851968503
C  C233  1  0.63450000  0.13450000  0.19940000  1.0 -0.0851968503
C  C234  1  0.36550000  0.13450000  0.80060000  1.0 -0.0851968503
C  C235  1  0.36550000  0.86550000  0.19940000  1.0 -0.0851968503
C  C236  1  0.63450000  0.86550000  0.80060000  1.0 -0.0851968503
C  C237  1  0.13450000  0.80060000  0.36550000  1.0 -0.0851968503
C  C238  1  0.13450000  0.19940000  0.63450000  1.0 -0.0851968503
C  C239  1  0.86550000  0.80060000  0.63450000  1.0 -0.0851968503
C  C240  1  0.86550000  0.19940000  0.36550000  1.0 -0.0851968503
C  C241  1  0.36550000  0.69940000  0.36550000  1.0 -0.0851968503
C  C242  1  0.63450000  0.30060000  0.36550000  1.0 -0.0851968503
C  C243  1  0.63450000  0.69940000  0.63450000  1.0 -0.0851968503
C  C244  1  0.36550000  0.30060000  0.63450000  1.0 -0.0851968503
C  C245  1  0.86550000  0.86550000  0.69940000  1.0 -0.0851968503
C  C246  1  0.86550000  0.13450000  0.30060000  1.0 -0.0851968503
C  C247  1  0.13450000  0.13450000  0.69940000  1.0 -0.0851968503
C  C248  1  0.13450000  0.86550000  0.30060000  1.0 -0.0851968503
C  C249  1  0.36550000  0.36550000  0.30060000  1.0 -0.0851968503
C  C250  1  0.63450000  0.36550000  0.69940000  1.0 -0.0851968503
C  C251  1  0.63450000  0.63450000  0.30060000  1.0 -0.0851968503
C  C252  1  0.36550000  0.63450000  0.69940000  1.0 -0.0851968503
C  C253  1  0.86550000  0.69940000  0.13450000  1.0 -0.0851968503
C  C254  1  0.86550000  0.30060000  0.86550000  1.0 -0.0851968503
C  C255  1  0.13450000  0.69940000  0.86550000  1.0 -0.0851968503
C  C256  1  0.13450000  0.30060000  0.13450000  1.0 -0.0851968503
C  C257  1  0.63450000  0.30060000  0.63450000  1.0 -0.0851968503
C  C258  1  0.36550000  0.69940000  0.63450000  1.0 -0.0851968503
C  C259  1  0.36550000  0.30060000  0.36550000  1.0 -0.0851968503
C  C260  1  0.63450000  0.69940000  0.36550000  1.0 -0.0851968503
C  C261  1  0.13450000  0.13450000  0.30060000  1.0 -0.0851968503
C  C262  1  0.13450000  0.86550000  0.69940000  1.0 -0.0851968503
C  C263  1  0.86550000  0.86550000  0.30060000  1.0 -0.0851968503
C  C264  1  0.86550000  0.13450000  0.69940000  1.0 -0.0851968503
C  C265  1  0.63450000  0.63450000  0.69940000  1.0 -0.0851968503
C  C266  1  0.36550000  0.63450000  0.30060000  1.0 -0.0851968503
C  C267  1  0.36550000  0.36550000  0.69940000  1.0 -0.0851968503
C  C268  1  0.63450000  0.36550000  0.30060000  1.0 -0.0851968503
C  C269  1  0.13450000  0.30060000  0.86550000  1.0 -0.0851968503
C  C270  1  0.13450000  0.69940000  0.13450000  1.0 -0.0851968503
C  C271  1  0.86550000  0.30060000  0.13450000  1.0 -0.0851968503
C  C272  1  0.86550000  0.69940000  0.86550000  1.0 -0.0851968503
C  C273  1  0.69940000  0.86550000  0.86550000  1.0 -0.0851968503
C  C274  1  0.30060000  0.86550000  0.13450000  1.0 -0.0851968503
C  C275  1  0.69940000  0.13450000  0.13450000  1.0 -0.0851968503
C  C276  1  0.30060000  0.13450000  0.86550000  1.0 -0.0851968503
C  C277  1  0.69940000  0.36550000  0.63450000  1.0 -0.0851968503
C  C278  1  0.30060000  0.63450000  0.63450000  1.0 -0.0851968503
C  C279  1  0.69940000  0.63450000  0.36550000  1.0 -0.0851968503
C  C280  1  0.30060000  0.36550000  0.36550000  1.0 -0.0851968503
C  C281  1  0.30060000  0.13450000  0.13450000  1.0 -0.0851968503
C  C282  1  0.69940000  0.13450000  0.86550000  1.0 -0.0851968503
C  C283  1  0.30060000  0.86550000  0.86550000  1.0 -0.0851968503
C  C284  1  0.69940000  0.86550000  0.13450000  1.0 -0.0851968503
C  C285  1  0.30060000  0.63450000  0.36550000  1.0 -0.0851968503
C  C286  1  0.69940000  0.36550000  0.36550000  1.0 -0.0851968503
C  C287  1  0.30060000  0.36550000  0.63450000  1.0 -0.0851968503
C  C288  1  0.69940000  0.63450000  0.63450000  1.0 -0.0851968503
O  O1  1  0.31660000  0.24310000  0.94780000  1.0 -0.515819784
O  O2  1  0.68340000  0.75690000  0.94780000  1.0 -0.515819784
O  O3  1  0.68340000  0.24310000  0.05220000  1.0 -0.515819784
O  O4  1  0.31660000  0.75690000  0.05220000  1.0 -0.515819784
O  O5  1  0.94780000  0.31660000  0.24310000  1.0 -0.515819784
O  O6  1  0.94780000  0.68340000  0.75690000  1.0 -0.515819784
O  O7  1  0.05220000  0.68340000  0.24310000  1.0 -0.515819784
O  O8  1  0.05220000  0.31660000  0.75690000  1.0 -0.515819784
O  O9  1  0.24310000  0.94780000  0.31660000  1.0 -0.515819784
O  O10  1  0.75690000  0.94780000  0.68340000  1.0 -0.515819784
O  O11  1  0.24310000  0.05220000  0.68340000  1.0 -0.515819784
O  O12  1  0.75690000  0.05220000  0.31660000  1.0 -0.515819784
O  O13  1  0.24310000  0.31660000  0.05220000  1.0 -0.515819784
O  O14  1  0.75690000  0.68340000  0.05220000  1.0 -0.515819784
O  O15  1  0.24310000  0.68340000  0.94780000  1.0 -0.515819784
O  O16  1  0.75690000  0.31660000  0.94780000  1.0 -0.515819784
O  O17  1  0.31660000  0.94780000  0.75690000  1.0 -0.515819784
O  O18  1  0.68340000  0.94780000  0.24310000  1.0 -0.515819784
O  O19  1  0.68340000  0.05220000  0.75690000  1.0 -0.515819784
O  O20  1  0.31660000  0.05220000  0.24310000  1.0 -0.515819784
O  O21  1  0.94780000  0.24310000  0.68340000  1.0 -0.515819784
O  O22  1  0.94780000  0.75690000  0.31660000  1.0 -0.515819784
O  O23  1  0.05220000  0.24310000  0.31660000  1.0 -0.515819784
O  O24  1  0.05220000  0.75690000  0.68340000  1.0 -0.515819784
O  O25  1  0.68340000  0.75690000  0.05220000  1.0 -0.515819784
O  O26  1  0.31660000  0.24310000  0.05220000  1.0 -0.515819784
O  O27  1  0.31660000  0.75690000  0.94780000  1.0 -0.515819784
O  O28  1  0.68340000  0.24310000  0.94780000  1.0 -0.515819784
O  O29  1  0.05220000  0.68340000  0.75690000  1.0 -0.515819784
O  O30  1  0.05220000  0.31660000  0.24310000  1.0 -0.515819784
O  O31  1  0.94780000  0.31660000  0.75690000  1.0 -0.515819784
O  O32  1  0.94780000  0.68340000  0.24310000  1.0 -0.515819784
O  O33  1  0.75690000  0.05220000  0.68340000  1.0 -0.515819784
O  O34  1  0.24310000  0.05220000  0.31660000  1.0 -0.515819784
O  O35  1  0.75690000  0.94780000  0.31660000  1.0 -0.515819784
O  O36  1  0.24310000  0.94780000  0.68340000  1.0 -0.515819784
O  O37  1  0.75690000  0.68340000  0.94780000  1.0 -0.515819784
O  O38  1  0.24310000  0.31660000  0.94780000  1.0 -0.515819784
O  O39  1  0.75690000  0.31660000  0.05220000  1.0 -0.515819784
O  O40  1  0.24310000  0.68340000  0.05220000  1.0 -0.515819784
O  O41  1  0.68340000  0.05220000  0.24310000  1.0 -0.515819784
O  O42  1  0.31660000  0.05220000  0.75690000  1.0 -0.515819784
O  O43  1  0.31660000  0.94780000  0.24310000  1.0 -0.515819784
O  O44  1  0.68340000  0.94780000  0.75690000  1.0 -0.515819784
O  O45  1  0.05220000  0.75690000  0.31660000  1.0 -0.515819784
O  O46  1  0.05220000  0.24310000  0.68340000  1.0 -0.515819784
O  O47  1  0.94780000  0.75690000  0.68340000  1.0 -0.515819784
O  O48  1  0.94780000  0.24310000  0.31660000  1.0 -0.515819784
O  O49  1  0.31660000  0.74310000  0.44780000  1.0 -0.515819784
O  O50  1  0.68340000  0.25690000  0.44780000  1.0 -0.515819784
O  O51  1  0.68340000  0.74310000  0.55220000  1.0 -0.515819784
O  O52  1  0.31660000  0.25690000  0.55220000  1.0 -0.515819784
O  O53  1  0.94780000  0.81660000  0.74310000  1.0 -0.515819784
O  O54  1  0.94780000  0.18340000  0.25690000  1.0 -0.515819784
O  O55  1  0.05220000  0.18340000  0.74310000  1.0 -0.515819784
O  O56  1  0.05220000  0.81660000  0.25690000  1.0 -0.515819784
O  O57  1  0.24310000  0.44780000  0.81660000  1.0 -0.515819784
O  O58  1  0.75690000  0.44780000  0.18340000  1.0 -0.515819784
O  O59  1  0.24310000  0.55220000  0.18340000  1.0 -0.515819784
O  O60  1  0.75690000  0.55220000  0.81660000  1.0 -0.515819784
O  O61  1  0.24310000  0.81660000  0.55220000  1.0 -0.515819784
O  O62  1  0.75690000  0.18340000  0.55220000  1.0 -0.515819784
O  O63  1  0.24310000  0.18340000  0.44780000  1.0 -0.515819784
O  O64  1  0.75690000  0.81660000  0.44780000  1.0 -0.515819784
O  O65  1  0.31660000  0.44780000  0.25690000  1.0 -0.515819784
O  O66  1  0.68340000  0.44780000  0.74310000  1.0 -0.515819784
O  O67  1  0.68340000  0.55220000  0.25690000  1.0 -0.515819784
O  O68  1  0.31660000  0.55220000  0.74310000  1.0 -0.515819784
O  O69  1  0.94780000  0.74310000  0.18340000  1.0 -0.515819784
O  O70  1  0.94780000  0.25690000  0.81660000  1.0 -0.515819784
O  O71  1  0.05220000  0.74310000  0.81660000  1.0 -0.515819784
O  O72  1  0.05220000  0.25690000  0.18340000  1.0 -0.515819784
O  O73  1  0.68340000  0.25690000  0.55220000  1.0 -0.515819784
O  O74  1  0.31660000  0.74310000  0.55220000  1.0 -0.515819784
O  O75  1  0.31660000  0.25690000  0.44780000  1.0 -0.515819784
O  O76  1  0.68340000  0.74310000  0.44780000  1.0 -0.515819784
O  O77  1  0.05220000  0.18340000  0.25690000  1.0 -0.515819784
O  O78  1  0.05220000  0.81660000  0.74310000  1.0 -0.515819784
O  O79  1  0.94780000  0.81660000  0.25690000  1.0 -0.515819784
O  O80  1  0.94780000  0.18340000  0.74310000  1.0 -0.515819784
O  O81  1  0.75690000  0.55220000  0.18340000  1.0 -0.515819784
O  O82  1  0.24310000  0.55220000  0.81660000  1.0 -0.515819784
O  O83  1  0.75690000  0.44780000  0.81660000  1.0 -0.515819784
O  O84  1  0.24310000  0.44780000  0.18340000  1.0 -0.515819784
O  O85  1  0.75690000  0.18340000  0.44780000  1.0 -0.515819784
O  O86  1  0.24310000  0.81660000  0.44780000  1.0 -0.515819784
O  O87  1  0.75690000  0.81660000  0.55220000  1.0 -0.515819784
O  O88  1  0.24310000  0.18340000  0.55220000  1.0 -0.515819784
O  O89  1  0.68340000  0.55220000  0.74310000  1.0 -0.515819784
O  O90  1  0.31660000  0.55220000  0.25690000  1.0 -0.515819784
O  O91  1  0.31660000  0.44780000  0.74310000  1.0 -0.515819784
O  O92  1  0.68340000  0.44780000  0.25690000  1.0 -0.515819784
O  O93  1  0.05220000  0.25690000  0.81660000  1.0 -0.515819784
O  O94  1  0.05220000  0.74310000  0.18340000  1.0 -0.515819784
O  O95  1  0.94780000  0.25690000  0.18340000  1.0 -0.515819784
O  O96  1  0.94780000  0.74310000  0.81660000  1.0 -0.515819784
O  O97  1  0.81660000  0.24310000  0.44780000  1.0 -0.515819784
O  O98  1  0.18340000  0.75690000  0.44780000  1.0 -0.515819784
O  O99  1  0.18340000  0.24310000  0.55220000  1.0 -0.515819784
O  O100  1  0.81660000  0.75690000  0.55220000  1.0 -0.515819784
O  O101  1  0.44780000  0.31660000  0.74310000  1.0 -0.515819784
O  O102  1  0.44780000  0.68340000  0.25690000  1.0 -0.515819784
O  O103  1  0.55220000  0.68340000  0.74310000  1.0 -0.515819784
O  O104  1  0.55220000  0.31660000  0.25690000  1.0 -0.515819784
O  O105  1  0.74310000  0.94780000  0.81660000  1.0 -0.515819784
O  O106  1  0.25690000  0.94780000  0.18340000  1.0 -0.515819784
O  O107  1  0.74310000  0.05220000  0.18340000  1.0 -0.515819784
O  O108  1  0.25690000  0.05220000  0.81660000  1.0 -0.515819784
O  O109  1  0.74310000  0.31660000  0.55220000  1.0 -0.515819784
O  O110  1  0.25690000  0.68340000  0.55220000  1.0 -0.515819784
O  O111  1  0.74310000  0.68340000  0.44780000  1.0 -0.515819784
O  O112  1  0.25690000  0.31660000  0.44780000  1.0 -0.515819784
O  O113  1  0.81660000  0.94780000  0.25690000  1.0 -0.515819784
O  O114  1  0.18340000  0.94780000  0.74310000  1.0 -0.515819784
O  O115  1  0.18340000  0.05220000  0.25690000  1.0 -0.515819784
O  O116  1  0.81660000  0.05220000  0.74310000  1.0 -0.515819784
O  O117  1  0.44780000  0.24310000  0.18340000  1.0 -0.515819784
O  O118  1  0.44780000  0.75690000  0.81660000  1.0 -0.515819784
O  O119  1  0.55220000  0.24310000  0.81660000  1.0 -0.515819784
O  O120  1  0.55220000  0.75690000  0.18340000  1.0 -0.515819784
O  O121  1  0.18340000  0.75690000  0.55220000  1.0 -0.515819784
O  O122  1  0.81660000  0.24310000  0.55220000  1.0 -0.515819784
O  O123  1  0.81660000  0.75690000  0.44780000  1.0 -0.515819784
O  O124  1  0.18340000  0.24310000  0.44780000  1.0 -0.515819784
O  O125  1  0.55220000  0.68340000  0.25690000  1.0 -0.515819784
O  O126  1  0.55220000  0.31660000  0.74310000  1.0 -0.515819784
O  O127  1  0.44780000  0.31660000  0.25690000  1.0 -0.515819784
O  O128  1  0.44780000  0.68340000  0.74310000  1.0 -0.515819784
O  O129  1  0.25690000  0.05220000  0.18340000  1.0 -0.515819784
O  O130  1  0.74310000  0.05220000  0.81660000  1.0 -0.515819784
O  O131  1  0.25690000  0.94780000  0.81660000  1.0 -0.515819784
O  O132  1  0.74310000  0.94780000  0.18340000  1.0 -0.515819784
O  O133  1  0.25690000  0.68340000  0.44780000  1.0 -0.515819784
O  O134  1  0.74310000  0.31660000  0.44780000  1.0 -0.515819784
O  O135  1  0.25690000  0.31660000  0.55220000  1.0 -0.515819784
O  O136  1  0.74310000  0.68340000  0.55220000  1.0 -0.515819784
O  O137  1  0.18340000  0.05220000  0.74310000  1.0 -0.515819784
O  O138  1  0.81660000  0.05220000  0.25690000  1.0 -0.515819784
O  O139  1  0.81660000  0.94780000  0.74310000  1.0 -0.515819784
O  O140  1  0.18340000  0.94780000  0.25690000  1.0 -0.515819784
O  O141  1  0.55220000  0.75690000  0.81660000  1.0 -0.515819784
O  O142  1  0.55220000  0.24310000  0.18340000  1.0 -0.515819784
O  O143  1  0.44780000  0.75690000  0.18340000  1.0 -0.515819784
O  O144  1  0.44780000  0.24310000  0.81660000  1.0 -0.515819784
O  O145  1  0.81660000  0.74310000  0.94780000  1.0 -0.515819784
O  O146  1  0.18340000  0.25690000  0.94780000  1.0 -0.515819784
O  O147  1  0.18340000  0.74310000  0.05220000  1.0 -0.515819784
O  O148  1  0.81660000  0.25690000  0.05220000  1.0 -0.515819784
O  O149  1  0.44780000  0.81660000  0.24310000  1.0 -0.515819784
O  O150  1  0.44780000  0.18340000  0.75690000  1.0 -0.515819784
O  O151  1  0.55220000  0.18340000  0.24310000  1.0 -0.515819784
O  O152  1  0.55220000  0.81660000  0.75690000  1.0 -0.515819784
O  O153  1  0.74310000  0.44780000  0.31660000  1.0 -0.515819784
O  O154  1  0.25690000  0.44780000  0.68340000  1.0 -0.515819784
O  O155  1  0.74310000  0.55220000  0.68340000  1.0 -0.515819784
O  O156  1  0.25690000  0.55220000  0.31660000  1.0 -0.515819784
O  O157  1  0.74310000  0.81660000  0.05220000  1.0 -0.515819784
O  O158  1  0.25690000  0.18340000  0.05220000  1.0 -0.515819784
O  O159  1  0.74310000  0.18340000  0.94780000  1.0 -0.515819784
O  O160  1  0.25690000  0.81660000  0.94780000  1.0 -0.515819784
O  O161  1  0.81660000  0.44780000  0.75690000  1.0 -0.515819784
O  O162  1  0.18340000  0.44780000  0.24310000  1.0 -0.515819784
O  O163  1  0.18340000  0.55220000  0.75690000  1.0 -0.515819784
O  O164  1  0.81660000  0.55220000  0.24310000  1.0 -0.515819784
O  O165  1  0.44780000  0.74310000  0.68340000  1.0 -0.515819784
O  O166  1  0.44780000  0.25690000  0.31660000  1.0 -0.515819784
O  O167  1  0.55220000  0.74310000  0.31660000  1.0 -0.515819784
O  O168  1  0.55220000  0.25690000  0.68340000  1.0 -0.515819784
O  O169  1  0.18340000  0.25690000  0.05220000  1.0 -0.515819784
O  O170  1  0.81660000  0.74310000  0.05220000  1.0 -0.515819784
O  O171  1  0.81660000  0.25690000  0.94780000  1.0 -0.515819784
O  O172  1  0.18340000  0.74310000  0.94780000  1.0 -0.515819784
O  O173  1  0.55220000  0.18340000  0.75690000  1.0 -0.515819784
O  O174  1  0.55220000  0.81660000  0.24310000  1.0 -0.515819784
O  O175  1  0.44780000  0.81660000  0.75690000  1.0 -0.515819784
O  O176  1  0.44780000  0.18340000  0.24310000  1.0 -0.515819784
O  O177  1  0.25690000  0.55220000  0.68340000  1.0 -0.515819784
O  O178  1  0.74310000  0.55220000  0.31660000  1.0 -0.515819784
O  O179  1  0.25690000  0.44780000  0.31660000  1.0 -0.515819784
O  O180  1  0.74310000  0.44780000  0.68340000  1.0 -0.515819784
O  O181  1  0.25690000  0.18340000  0.94780000  1.0 -0.515819784
O  O182  1  0.74310000  0.81660000  0.94780000  1.0 -0.515819784
O  O183  1  0.25690000  0.81660000  0.05220000  1.0 -0.515819784
O  O184  1  0.74310000  0.18340000  0.05220000  1.0 -0.515819784
O  O185  1  0.18340000  0.55220000  0.24310000  1.0 -0.515819784
O  O186  1  0.81660000  0.55220000  0.75690000  1.0 -0.515819784
O  O187  1  0.81660000  0.44780000  0.24310000  1.0 -0.515819784
O  O188  1  0.18340000  0.44780000  0.75690000  1.0 -0.515819784
O  O189  1  0.55220000  0.25690000  0.31660000  1.0 -0.515819784
O  O190  1  0.55220000  0.74310000  0.68340000  1.0 -0.515819784
O  O191  1  0.44780000  0.25690000  0.68340000  1.0 -0.515819784
O  O192  1  0.44780000  0.74310000  0.31660000  1.0 -0.515819784
=======
Cu  Cu1  1  0.28530000  0.28530000  0.00000000  1.0 0.8566041862
Cu  Cu2  1  0.71470000  0.71470000  0.00000000  1.0 0.8566041862
Cu  Cu3  1  0.71470000  0.28530000  0.00000000  1.0 0.8566041862
Cu  Cu4  1  0.28530000  0.71470000  0.00000000  1.0 0.8566041862
Cu  Cu5  1  0.00000000  0.28530000  0.28530000  1.0 0.8566041862
Cu  Cu6  1  0.00000000  0.71470000  0.71470000  1.0 0.8566041862
Cu  Cu7  1  0.00000000  0.71470000  0.28530000  1.0 0.8566041862
Cu  Cu8  1  0.00000000  0.28530000  0.71470000  1.0 0.8566041862
Cu  Cu9  1  0.28530000  0.00000000  0.28530000  1.0 0.8566041862
Cu  Cu10  1  0.71470000  0.00000000  0.71470000  1.0 0.8566041862
Cu  Cu11  1  0.28530000  0.00000000  0.71470000  1.0 0.8566041862
Cu  Cu12  1  0.71470000  0.00000000  0.28530000  1.0 0.8566041862
Cu  Cu13  1  0.28530000  0.78530000  0.50000000  1.0 0.8566041862
Cu  Cu14  1  0.71470000  0.21470000  0.50000000  1.0 0.8566041862
Cu  Cu15  1  0.71470000  0.78530000  0.50000000  1.0 0.8566041862
Cu  Cu16  1  0.28530000  0.21470000  0.50000000  1.0 0.8566041862
Cu  Cu17  1  0.00000000  0.78530000  0.78530000  1.0 0.8566041862
Cu  Cu18  1  0.00000000  0.21470000  0.21470000  1.0 0.8566041862
Cu  Cu19  1  0.00000000  0.21470000  0.78530000  1.0 0.8566041862
Cu  Cu20  1  0.00000000  0.78530000  0.21470000  1.0 0.8566041862
Cu  Cu21  1  0.28530000  0.50000000  0.78530000  1.0 0.8566041862
Cu  Cu22  1  0.71470000  0.50000000  0.21470000  1.0 0.8566041862
Cu  Cu23  1  0.28530000  0.50000000  0.21470000  1.0 0.8566041862
Cu  Cu24  1  0.71470000  0.50000000  0.78530000  1.0 0.8566041862
Cu  Cu25  1  0.78530000  0.28530000  0.50000000  1.0 0.8566041862
Cu  Cu26  1  0.21470000  0.71470000  0.50000000  1.0 0.8566041862
Cu  Cu27  1  0.21470000  0.28530000  0.50000000  1.0 0.8566041862
Cu  Cu28  1  0.78530000  0.71470000  0.50000000  1.0 0.8566041862
Cu  Cu29  1  0.50000000  0.28530000  0.78530000  1.0 0.8566041862
Cu  Cu30  1  0.50000000  0.71470000  0.21470000  1.0 0.8566041862
Cu  Cu31  1  0.50000000  0.71470000  0.78530000  1.0 0.8566041862
Cu  Cu32  1  0.50000000  0.28530000  0.21470000  1.0 0.8566041862
Cu  Cu33  1  0.78530000  0.00000000  0.78530000  1.0 0.8566041862
Cu  Cu34  1  0.21470000  0.00000000  0.21470000  1.0 0.8566041862
Cu  Cu35  1  0.78530000  0.00000000  0.21470000  1.0 0.8566041862
Cu  Cu36  1  0.21470000  0.00000000  0.78530000  1.0 0.8566041862
Cu  Cu37  1  0.78530000  0.78530000  0.00000000  1.0 0.8566041862
Cu  Cu38  1  0.21470000  0.21470000  0.00000000  1.0 0.8566041862
Cu  Cu39  1  0.21470000  0.78530000  0.00000000  1.0 0.8566041862
Cu  Cu40  1  0.78530000  0.21470000  0.00000000  1.0 0.8566041862
Cu  Cu41  1  0.50000000  0.78530000  0.28530000  1.0 0.8566041862
Cu  Cu42  1  0.50000000  0.21470000  0.71470000  1.0 0.8566041862
Cu  Cu43  1  0.50000000  0.21470000  0.28530000  1.0 0.8566041862
Cu  Cu44  1  0.50000000  0.78530000  0.71470000  1.0 0.8566041862
Cu  Cu45  1  0.78530000  0.50000000  0.28530000  1.0 0.8566041862
Cu  Cu46  1  0.21470000  0.50000000  0.71470000  1.0 0.8566041862
Cu  Cu47  1  0.78530000  0.50000000  0.71470000  1.0 0.8566041862
Cu  Cu48  1  0.21470000  0.50000000  0.28530000  1.0 0.8566041862
H  H1  1  0.38020000  0.22800000  0.88020000  1.0 0.1373396417
H  H2  1  0.61980000  0.77200000  0.88020000  1.0 0.1373396417
H  H3  1  0.61980000  0.22800000  0.11980000  1.0 0.1373396417
H  H4  1  0.38020000  0.77200000  0.11980000  1.0 0.1373396417
H  H5  1  0.88020000  0.38020000  0.22800000  1.0 0.1373396417
H  H6  1  0.88020000  0.61980000  0.77200000  1.0 0.1373396417
H  H7  1  0.11980000  0.61980000  0.22800000  1.0 0.1373396417
H  H8  1  0.11980000  0.38020000  0.77200000  1.0 0.1373396417
H  H9  1  0.22800000  0.88020000  0.38020000  1.0 0.1373396417
H  H10  1  0.77200000  0.88020000  0.61980000  1.0 0.1373396417
H  H11  1  0.22800000  0.11980000  0.61980000  1.0 0.1373396417
H  H12  1  0.77200000  0.11980000  0.38020000  1.0 0.1373396417
H  H13  1  0.22800000  0.38020000  0.11980000  1.0 0.1373396417
H  H14  1  0.77200000  0.61980000  0.11980000  1.0 0.1373396417
H  H15  1  0.22800000  0.61980000  0.88020000  1.0 0.1373396417
H  H16  1  0.77200000  0.38020000  0.88020000  1.0 0.1373396417
H  H17  1  0.38020000  0.88020000  0.77200000  1.0 0.1373396417
H  H18  1  0.61980000  0.88020000  0.22800000  1.0 0.1373396417
H  H19  1  0.61980000  0.11980000  0.77200000  1.0 0.1373396417
H  H20  1  0.38020000  0.11980000  0.22800000  1.0 0.1373396417
H  H21  1  0.88020000  0.22800000  0.61980000  1.0 0.1373396417
H  H22  1  0.88020000  0.77200000  0.38020000  1.0 0.1373396417
H  H23  1  0.11980000  0.22800000  0.38020000  1.0 0.1373396417
H  H24  1  0.11980000  0.77200000  0.61980000  1.0 0.1373396417
H  H25  1  0.61980000  0.77200000  0.11980000  1.0 0.1373396417
H  H26  1  0.38020000  0.22800000  0.11980000  1.0 0.1373396417
H  H27  1  0.38020000  0.77200000  0.88020000  1.0 0.1373396417
H  H28  1  0.61980000  0.22800000  0.88020000  1.0 0.1373396417
H  H29  1  0.11980000  0.61980000  0.77200000  1.0 0.1373396417
H  H30  1  0.11980000  0.38020000  0.22800000  1.0 0.1373396417
H  H31  1  0.88020000  0.38020000  0.77200000  1.0 0.1373396417
H  H32  1  0.88020000  0.61980000  0.22800000  1.0 0.1373396417
H  H33  1  0.77200000  0.11980000  0.61980000  1.0 0.1373396417
H  H34  1  0.22800000  0.11980000  0.38020000  1.0 0.1373396417
H  H35  1  0.77200000  0.88020000  0.38020000  1.0 0.1373396417
H  H36  1  0.22800000  0.88020000  0.61980000  1.0 0.1373396417
H  H37  1  0.77200000  0.61980000  0.88020000  1.0 0.1373396417
H  H38  1  0.22800000  0.38020000  0.88020000  1.0 0.1373396417
H  H39  1  0.77200000  0.38020000  0.11980000  1.0 0.1373396417
H  H40  1  0.22800000  0.61980000  0.11980000  1.0 0.1373396417
H  H41  1  0.61980000  0.11980000  0.22800000  1.0 0.1373396417
H  H42  1  0.38020000  0.11980000  0.77200000  1.0 0.1373396417
H  H43  1  0.38020000  0.88020000  0.22800000  1.0 0.1373396417
H  H44  1  0.61980000  0.88020000  0.77200000  1.0 0.1373396417
H  H45  1  0.11980000  0.77200000  0.38020000  1.0 0.1373396417
H  H46  1  0.11980000  0.22800000  0.61980000  1.0 0.1373396417
H  H47  1  0.88020000  0.77200000  0.61980000  1.0 0.1373396417
H  H48  1  0.88020000  0.22800000  0.38020000  1.0 0.1373396417
H  H49  1  0.38020000  0.72800000  0.38020000  1.0 0.1373396417
H  H50  1  0.61980000  0.27200000  0.38020000  1.0 0.1373396417
H  H51  1  0.61980000  0.72800000  0.61980000  1.0 0.1373396417
H  H52  1  0.38020000  0.27200000  0.61980000  1.0 0.1373396417
H  H53  1  0.88020000  0.88020000  0.72800000  1.0 0.1373396417
H  H54  1  0.88020000  0.11980000  0.27200000  1.0 0.1373396417
H  H55  1  0.11980000  0.11980000  0.72800000  1.0 0.1373396417
H  H56  1  0.11980000  0.88020000  0.27200000  1.0 0.1373396417
H  H57  1  0.38020000  0.38020000  0.27200000  1.0 0.1373396417
H  H58  1  0.61980000  0.38020000  0.72800000  1.0 0.1373396417
H  H59  1  0.61980000  0.61980000  0.27200000  1.0 0.1373396417
H  H60  1  0.38020000  0.61980000  0.72800000  1.0 0.1373396417
H  H61  1  0.88020000  0.72800000  0.11980000  1.0 0.1373396417
H  H62  1  0.88020000  0.27200000  0.88020000  1.0 0.1373396417
H  H63  1  0.11980000  0.72800000  0.88020000  1.0 0.1373396417
H  H64  1  0.11980000  0.27200000  0.11980000  1.0 0.1373396417
H  H65  1  0.61980000  0.27200000  0.61980000  1.0 0.1373396417
H  H66  1  0.38020000  0.72800000  0.61980000  1.0 0.1373396417
H  H67  1  0.38020000  0.27200000  0.38020000  1.0 0.1373396417
H  H68  1  0.61980000  0.72800000  0.38020000  1.0 0.1373396417
H  H69  1  0.11980000  0.11980000  0.27200000  1.0 0.1373396417
H  H70  1  0.11980000  0.88020000  0.72800000  1.0 0.1373396417
H  H71  1  0.88020000  0.88020000  0.27200000  1.0 0.1373396417
H  H72  1  0.88020000  0.11980000  0.72800000  1.0 0.1373396417
H  H73  1  0.61980000  0.61980000  0.72800000  1.0 0.1373396417
H  H74  1  0.38020000  0.61980000  0.27200000  1.0 0.1373396417
H  H75  1  0.38020000  0.38020000  0.72800000  1.0 0.1373396417
H  H76  1  0.61980000  0.38020000  0.27200000  1.0 0.1373396417
H  H77  1  0.11980000  0.27200000  0.88020000  1.0 0.1373396417
H  H78  1  0.11980000  0.72800000  0.11980000  1.0 0.1373396417
H  H79  1  0.88020000  0.27200000  0.11980000  1.0 0.1373396417
H  H80  1  0.88020000  0.72800000  0.88020000  1.0 0.1373396417
H  H81  1  0.72800000  0.88020000  0.88020000  1.0 0.1373396417
H  H82  1  0.27200000  0.88020000  0.11980000  1.0 0.1373396417
H  H83  1  0.72800000  0.11980000  0.11980000  1.0 0.1373396417
H  H84  1  0.27200000  0.11980000  0.88020000  1.0 0.1373396417
H  H85  1  0.72800000  0.38020000  0.61980000  1.0 0.1373396417
H  H86  1  0.27200000  0.61980000  0.61980000  1.0 0.1373396417
H  H87  1  0.72800000  0.61980000  0.38020000  1.0 0.1373396417
H  H88  1  0.27200000  0.38020000  0.38020000  1.0 0.1373396417
H  H89  1  0.27200000  0.11980000  0.11980000  1.0 0.1373396417
H  H90  1  0.72800000  0.11980000  0.88020000  1.0 0.1373396417
H  H91  1  0.27200000  0.88020000  0.88020000  1.0 0.1373396417
H  H92  1  0.72800000  0.88020000  0.11980000  1.0 0.1373396417
H  H93  1  0.27200000  0.61980000  0.38020000  1.0 0.1373396417
H  H94  1  0.72800000  0.38020000  0.38020000  1.0 0.1373396417
H  H95  1  0.27200000  0.38020000  0.61980000  1.0 0.1373396417
H  H96  1  0.72800000  0.61980000  0.61980000  1.0 0.1373396417
C  C1  1  0.29680000  0.20320000  0.93130000  1.0 0.5823786607
C  C2  1  0.70320000  0.79680000  0.93130000  1.0 0.5823786607
C  C3  1  0.70320000  0.20320000  0.06870000  1.0 0.5823786607
C  C4  1  0.29680000  0.79680000  0.06870000  1.0 0.5823786607
C  C5  1  0.93130000  0.29680000  0.20320000  1.0 0.5823786607
C  C6  1  0.93130000  0.70320000  0.79680000  1.0 0.5823786607
C  C7  1  0.06870000  0.70320000  0.20320000  1.0 0.5823786607
C  C8  1  0.06870000  0.29680000  0.79680000  1.0 0.5823786607
C  C9  1  0.20320000  0.93130000  0.29680000  1.0 0.5823786607
C  C10  1  0.79680000  0.93130000  0.70320000  1.0 0.5823786607
C  C11  1  0.20320000  0.06870000  0.70320000  1.0 0.5823786607
C  C12  1  0.79680000  0.06870000  0.29680000  1.0 0.5823786607
C  C13  1  0.20320000  0.29680000  0.06870000  1.0 0.5823786607
C  C14  1  0.79680000  0.70320000  0.06870000  1.0 0.5823786607
C  C15  1  0.20320000  0.70320000  0.93130000  1.0 0.5823786607
C  C16  1  0.79680000  0.29680000  0.93130000  1.0 0.5823786607
C  C17  1  0.29680000  0.93130000  0.79680000  1.0 0.5823786607
C  C18  1  0.70320000  0.93130000  0.20320000  1.0 0.5823786607
C  C19  1  0.70320000  0.06870000  0.79680000  1.0 0.5823786607
C  C20  1  0.29680000  0.06870000  0.20320000  1.0 0.5823786607
C  C21  1  0.93130000  0.20320000  0.70320000  1.0 0.5823786607
C  C22  1  0.93130000  0.79680000  0.29680000  1.0 0.5823786607
C  C23  1  0.06870000  0.20320000  0.29680000  1.0 0.5823786607
C  C24  1  0.06870000  0.79680000  0.70320000  1.0 0.5823786607
C  C25  1  0.70320000  0.79680000  0.06870000  1.0 0.5823786607
C  C26  1  0.29680000  0.20320000  0.06870000  1.0 0.5823786607
C  C27  1  0.29680000  0.79680000  0.93130000  1.0 0.5823786607
C  C28  1  0.70320000  0.20320000  0.93130000  1.0 0.5823786607
C  C29  1  0.06870000  0.70320000  0.79680000  1.0 0.5823786607
C  C30  1  0.06870000  0.29680000  0.20320000  1.0 0.5823786607
C  C31  1  0.93130000  0.29680000  0.79680000  1.0 0.5823786607
C  C32  1  0.93130000  0.70320000  0.20320000  1.0 0.5823786607
C  C33  1  0.79680000  0.06870000  0.70320000  1.0 0.5823786607
C  C34  1  0.20320000  0.06870000  0.29680000  1.0 0.5823786607
C  C35  1  0.79680000  0.93130000  0.29680000  1.0 0.5823786607
C  C36  1  0.20320000  0.93130000  0.70320000  1.0 0.5823786607
C  C37  1  0.79680000  0.70320000  0.93130000  1.0 0.5823786607
C  C38  1  0.20320000  0.29680000  0.93130000  1.0 0.5823786607
C  C39  1  0.79680000  0.29680000  0.06870000  1.0 0.5823786607
C  C40  1  0.20320000  0.70320000  0.06870000  1.0 0.5823786607
C  C41  1  0.70320000  0.06870000  0.20320000  1.0 0.5823786607
C  C42  1  0.29680000  0.06870000  0.79680000  1.0 0.5823786607
C  C43  1  0.29680000  0.93130000  0.20320000  1.0 0.5823786607
C  C44  1  0.70320000  0.93130000  0.79680000  1.0 0.5823786607
C  C45  1  0.06870000  0.79680000  0.29680000  1.0 0.5823786607
C  C46  1  0.06870000  0.20320000  0.70320000  1.0 0.5823786607
C  C47  1  0.93130000  0.79680000  0.70320000  1.0 0.5823786607
C  C48  1  0.93130000  0.20320000  0.29680000  1.0 0.5823786607
C  C49  1  0.29680000  0.70320000  0.43130000  1.0 0.5823786607
C  C50  1  0.70320000  0.29680000  0.43130000  1.0 0.5823786607
C  C51  1  0.70320000  0.70320000  0.56870000  1.0 0.5823786607
C  C52  1  0.29680000  0.29680000  0.56870000  1.0 0.5823786607
C  C53  1  0.20320000  0.43130000  0.79680000  1.0 0.5823786607
C  C54  1  0.79680000  0.43130000  0.20320000  1.0 0.5823786607
C  C55  1  0.20320000  0.56870000  0.20320000  1.0 0.5823786607
C  C56  1  0.79680000  0.56870000  0.79680000  1.0 0.5823786607
C  C57  1  0.20320000  0.79680000  0.56870000  1.0 0.5823786607
C  C58  1  0.79680000  0.20320000  0.56870000  1.0 0.5823786607
C  C59  1  0.20320000  0.20320000  0.43130000  1.0 0.5823786607
C  C60  1  0.79680000  0.79680000  0.43130000  1.0 0.5823786607
C  C61  1  0.29680000  0.43130000  0.29680000  1.0 0.5823786607
C  C62  1  0.70320000  0.43130000  0.70320000  1.0 0.5823786607
C  C63  1  0.70320000  0.56870000  0.29680000  1.0 0.5823786607
C  C64  1  0.29680000  0.56870000  0.70320000  1.0 0.5823786607
C  C65  1  0.70320000  0.29680000  0.56870000  1.0 0.5823786607
C  C66  1  0.29680000  0.70320000  0.56870000  1.0 0.5823786607
C  C67  1  0.29680000  0.29680000  0.43130000  1.0 0.5823786607
C  C68  1  0.70320000  0.70320000  0.43130000  1.0 0.5823786607
C  C69  1  0.79680000  0.56870000  0.20320000  1.0 0.5823786607
C  C70  1  0.20320000  0.56870000  0.79680000  1.0 0.5823786607
C  C71  1  0.79680000  0.43130000  0.79680000  1.0 0.5823786607
C  C72  1  0.20320000  0.43130000  0.20320000  1.0 0.5823786607
C  C73  1  0.79680000  0.20320000  0.43130000  1.0 0.5823786607
C  C74  1  0.20320000  0.79680000  0.43130000  1.0 0.5823786607
C  C75  1  0.79680000  0.79680000  0.56870000  1.0 0.5823786607
C  C76  1  0.20320000  0.20320000  0.56870000  1.0 0.5823786607
C  C77  1  0.70320000  0.56870000  0.70320000  1.0 0.5823786607
C  C78  1  0.29680000  0.56870000  0.29680000  1.0 0.5823786607
C  C79  1  0.29680000  0.43130000  0.70320000  1.0 0.5823786607
C  C80  1  0.70320000  0.43130000  0.29680000  1.0 0.5823786607
C  C81  1  0.43130000  0.29680000  0.70320000  1.0 0.5823786607
C  C82  1  0.43130000  0.70320000  0.29680000  1.0 0.5823786607
C  C83  1  0.56870000  0.70320000  0.70320000  1.0 0.5823786607
C  C84  1  0.56870000  0.29680000  0.29680000  1.0 0.5823786607
C  C85  1  0.43130000  0.20320000  0.20320000  1.0 0.5823786607
C  C86  1  0.43130000  0.79680000  0.79680000  1.0 0.5823786607
C  C87  1  0.56870000  0.20320000  0.79680000  1.0 0.5823786607
C  C88  1  0.56870000  0.79680000  0.20320000  1.0 0.5823786607
C  C89  1  0.56870000  0.70320000  0.29680000  1.0 0.5823786607
C  C90  1  0.56870000  0.29680000  0.70320000  1.0 0.5823786607
C  C91  1  0.43130000  0.29680000  0.29680000  1.0 0.5823786607
C  C92  1  0.43130000  0.70320000  0.70320000  1.0 0.5823786607
C  C93  1  0.56870000  0.79680000  0.79680000  1.0 0.5823786607
C  C94  1  0.56870000  0.20320000  0.20320000  1.0 0.5823786607
C  C95  1  0.43130000  0.79680000  0.20320000  1.0 0.5823786607
C  C96  1  0.43130000  0.20320000  0.79680000  1.0 0.5823786607
C  C97  1  0.32200000  0.17800000  0.88700000  1.0 -0.0322460494
C  C98  1  0.67800000  0.82200000  0.88700000  1.0 -0.0322460494
C  C99  1  0.67800000  0.17800000  0.11300000  1.0 -0.0322460494
C  C100  1  0.32200000  0.82200000  0.11300000  1.0 -0.0322460494
C  C101  1  0.88700000  0.32200000  0.17800000  1.0 -0.0322460494
C  C102  1  0.88700000  0.67800000  0.82200000  1.0 -0.0322460494
C  C103  1  0.11300000  0.67800000  0.17800000  1.0 -0.0322460494
C  C104  1  0.11300000  0.32200000  0.82200000  1.0 -0.0322460494
C  C105  1  0.17800000  0.88700000  0.32200000  1.0 -0.0322460494
C  C106  1  0.82200000  0.88700000  0.67800000  1.0 -0.0322460494
C  C107  1  0.17800000  0.11300000  0.67800000  1.0 -0.0322460494
C  C108  1  0.82200000  0.11300000  0.32200000  1.0 -0.0322460494
C  C109  1  0.17800000  0.32200000  0.11300000  1.0 -0.0322460494
C  C110  1  0.82200000  0.67800000  0.11300000  1.0 -0.0322460494
C  C111  1  0.17800000  0.67800000  0.88700000  1.0 -0.0322460494
C  C112  1  0.82200000  0.32200000  0.88700000  1.0 -0.0322460494
C  C113  1  0.32200000  0.88700000  0.82200000  1.0 -0.0322460494
C  C114  1  0.67800000  0.88700000  0.17800000  1.0 -0.0322460494
C  C115  1  0.67800000  0.11300000  0.82200000  1.0 -0.0322460494
C  C116  1  0.32200000  0.11300000  0.17800000  1.0 -0.0322460494
C  C117  1  0.88700000  0.17800000  0.67800000  1.0 -0.0322460494
C  C118  1  0.88700000  0.82200000  0.32200000  1.0 -0.0322460494
C  C119  1  0.11300000  0.17800000  0.32200000  1.0 -0.0322460494
C  C120  1  0.11300000  0.82200000  0.67800000  1.0 -0.0322460494
C  C121  1  0.67800000  0.82200000  0.11300000  1.0 -0.0322460494
C  C122  1  0.32200000  0.17800000  0.11300000  1.0 -0.0322460494
C  C123  1  0.32200000  0.82200000  0.88700000  1.0 -0.0322460494
C  C124  1  0.67800000  0.17800000  0.88700000  1.0 -0.0322460494
C  C125  1  0.11300000  0.67800000  0.82200000  1.0 -0.0322460494
C  C126  1  0.11300000  0.32200000  0.17800000  1.0 -0.0322460494
C  C127  1  0.88700000  0.32200000  0.82200000  1.0 -0.0322460494
C  C128  1  0.88700000  0.67800000  0.17800000  1.0 -0.0322460494
C  C129  1  0.82200000  0.11300000  0.67800000  1.0 -0.0322460494
C  C130  1  0.17800000  0.11300000  0.32200000  1.0 -0.0322460494
C  C131  1  0.82200000  0.88700000  0.32200000  1.0 -0.0322460494
C  C132  1  0.17800000  0.88700000  0.67800000  1.0 -0.0322460494
C  C133  1  0.82200000  0.67800000  0.88700000  1.0 -0.0322460494
C  C134  1  0.17800000  0.32200000  0.88700000  1.0 -0.0322460494
C  C135  1  0.82200000  0.32200000  0.11300000  1.0 -0.0322460494
C  C136  1  0.17800000  0.67800000  0.11300000  1.0 -0.0322460494
C  C137  1  0.67800000  0.11300000  0.17800000  1.0 -0.0322460494
C  C138  1  0.32200000  0.11300000  0.82200000  1.0 -0.0322460494
C  C139  1  0.32200000  0.88700000  0.17800000  1.0 -0.0322460494
C  C140  1  0.67800000  0.88700000  0.82200000  1.0 -0.0322460494
C  C141  1  0.11300000  0.82200000  0.32200000  1.0 -0.0322460494
C  C142  1  0.11300000  0.17800000  0.67800000  1.0 -0.0322460494
C  C143  1  0.88700000  0.82200000  0.67800000  1.0 -0.0322460494
C  C144  1  0.88700000  0.17800000  0.32200000  1.0 -0.0322460494
C  C145  1  0.32200000  0.67800000  0.38700000  1.0 -0.0322460494
C  C146  1  0.67800000  0.32200000  0.38700000  1.0 -0.0322460494
C  C147  1  0.67800000  0.67800000  0.61300000  1.0 -0.0322460494
C  C148  1  0.32200000  0.32200000  0.61300000  1.0 -0.0322460494
C  C149  1  0.17800000  0.38700000  0.82200000  1.0 -0.0322460494
C  C150  1  0.82200000  0.38700000  0.17800000  1.0 -0.0322460494
C  C151  1  0.17800000  0.61300000  0.17800000  1.0 -0.0322460494
C  C152  1  0.82200000  0.61300000  0.82200000  1.0 -0.0322460494
C  C153  1  0.17800000  0.82200000  0.61300000  1.0 -0.0322460494
C  C154  1  0.82200000  0.17800000  0.61300000  1.0 -0.0322460494
C  C155  1  0.17800000  0.17800000  0.38700000  1.0 -0.0322460494
C  C156  1  0.82200000  0.82200000  0.38700000  1.0 -0.0322460494
C  C157  1  0.32200000  0.38700000  0.32200000  1.0 -0.0322460494
C  C158  1  0.67800000  0.38700000  0.67800000  1.0 -0.0322460494
C  C159  1  0.67800000  0.61300000  0.32200000  1.0 -0.0322460494
C  C160  1  0.32200000  0.61300000  0.67800000  1.0 -0.0322460494
C  C161  1  0.67800000  0.32200000  0.61300000  1.0 -0.0322460494
C  C162  1  0.32200000  0.67800000  0.61300000  1.0 -0.0322460494
C  C163  1  0.32200000  0.32200000  0.38700000  1.0 -0.0322460494
C  C164  1  0.67800000  0.67800000  0.38700000  1.0 -0.0322460494
C  C165  1  0.82200000  0.61300000  0.17800000  1.0 -0.0322460494
C  C166  1  0.17800000  0.61300000  0.82200000  1.0 -0.0322460494
C  C167  1  0.82200000  0.38700000  0.82200000  1.0 -0.0322460494
C  C168  1  0.17800000  0.38700000  0.17800000  1.0 -0.0322460494
C  C169  1  0.82200000  0.17800000  0.38700000  1.0 -0.0322460494
C  C170  1  0.17800000  0.82200000  0.38700000  1.0 -0.0322460494
C  C171  1  0.82200000  0.82200000  0.61300000  1.0 -0.0322460494
C  C172  1  0.17800000  0.17800000  0.61300000  1.0 -0.0322460494
C  C173  1  0.67800000  0.61300000  0.67800000  1.0 -0.0322460494
C  C174  1  0.32200000  0.61300000  0.32200000  1.0 -0.0322460494
C  C175  1  0.32200000  0.38700000  0.67800000  1.0 -0.0322460494
C  C176  1  0.67800000  0.38700000  0.32200000  1.0 -0.0322460494
C  C177  1  0.38700000  0.32200000  0.67800000  1.0 -0.0322460494
C  C178  1  0.38700000  0.67800000  0.32200000  1.0 -0.0322460494
C  C179  1  0.61300000  0.67800000  0.67800000  1.0 -0.0322460494
C  C180  1  0.61300000  0.32200000  0.32200000  1.0 -0.0322460494
C  C181  1  0.38700000  0.17800000  0.17800000  1.0 -0.0322460494
C  C182  1  0.38700000  0.82200000  0.82200000  1.0 -0.0322460494
C  C183  1  0.61300000  0.17800000  0.82200000  1.0 -0.0322460494
C  C184  1  0.61300000  0.82200000  0.17800000  1.0 -0.0322460494
C  C185  1  0.61300000  0.67800000  0.32200000  1.0 -0.0322460494
C  C186  1  0.61300000  0.32200000  0.67800000  1.0 -0.0322460494
C  C187  1  0.38700000  0.32200000  0.32200000  1.0 -0.0322460494
C  C188  1  0.38700000  0.67800000  0.67800000  1.0 -0.0322460494
C  C189  1  0.61300000  0.82200000  0.82200000  1.0 -0.0322460494
C  C190  1  0.61300000  0.17800000  0.17800000  1.0 -0.0322460494
C  C191  1  0.38700000  0.82200000  0.17800000  1.0 -0.0322460494
C  C192  1  0.38700000  0.17800000  0.82200000  1.0 -0.0322460494
C  C193  1  0.36550000  0.19940000  0.86550000  1.0 -0.0852594005
C  C194  1  0.63450000  0.80060000  0.86550000  1.0 -0.0852594005
C  C195  1  0.63450000  0.19940000  0.13450000  1.0 -0.0852594005
C  C196  1  0.36550000  0.80060000  0.13450000  1.0 -0.0852594005
C  C197  1  0.86550000  0.36550000  0.19940000  1.0 -0.0852594005
C  C198  1  0.86550000  0.63450000  0.80060000  1.0 -0.0852594005
C  C199  1  0.13450000  0.63450000  0.19940000  1.0 -0.0852594005
C  C200  1  0.13450000  0.36550000  0.80060000  1.0 -0.0852594005
C  C201  1  0.19940000  0.86550000  0.36550000  1.0 -0.0852594005
C  C202  1  0.80060000  0.86550000  0.63450000  1.0 -0.0852594005
C  C203  1  0.19940000  0.13450000  0.63450000  1.0 -0.0852594005
C  C204  1  0.80060000  0.13450000  0.36550000  1.0 -0.0852594005
C  C205  1  0.19940000  0.36550000  0.13450000  1.0 -0.0852594005
C  C206  1  0.80060000  0.63450000  0.13450000  1.0 -0.0852594005
C  C207  1  0.19940000  0.63450000  0.86550000  1.0 -0.0852594005
C  C208  1  0.80060000  0.36550000  0.86550000  1.0 -0.0852594005
C  C209  1  0.36550000  0.86550000  0.80060000  1.0 -0.0852594005
C  C210  1  0.63450000  0.86550000  0.19940000  1.0 -0.0852594005
C  C211  1  0.63450000  0.13450000  0.80060000  1.0 -0.0852594005
C  C212  1  0.36550000  0.13450000  0.19940000  1.0 -0.0852594005
C  C213  1  0.86550000  0.19940000  0.63450000  1.0 -0.0852594005
C  C214  1  0.86550000  0.80060000  0.36550000  1.0 -0.0852594005
C  C215  1  0.13450000  0.19940000  0.36550000  1.0 -0.0852594005
C  C216  1  0.13450000  0.80060000  0.63450000  1.0 -0.0852594005
C  C217  1  0.63450000  0.80060000  0.13450000  1.0 -0.0852594005
C  C218  1  0.36550000  0.19940000  0.13450000  1.0 -0.0852594005
C  C219  1  0.36550000  0.80060000  0.86550000  1.0 -0.0852594005
C  C220  1  0.63450000  0.19940000  0.86550000  1.0 -0.0852594005
C  C221  1  0.13450000  0.63450000  0.80060000  1.0 -0.0852594005
C  C222  1  0.13450000  0.36550000  0.19940000  1.0 -0.0852594005
C  C223  1  0.86550000  0.36550000  0.80060000  1.0 -0.0852594005
C  C224  1  0.86550000  0.63450000  0.19940000  1.0 -0.0852594005
C  C225  1  0.80060000  0.13450000  0.63450000  1.0 -0.0852594005
C  C226  1  0.19940000  0.13450000  0.36550000  1.0 -0.0852594005
C  C227  1  0.80060000  0.86550000  0.36550000  1.0 -0.0852594005
C  C228  1  0.19940000  0.86550000  0.63450000  1.0 -0.0852594005
C  C229  1  0.80060000  0.63450000  0.86550000  1.0 -0.0852594005
C  C230  1  0.19940000  0.36550000  0.86550000  1.0 -0.0852594005
C  C231  1  0.80060000  0.36550000  0.13450000  1.0 -0.0852594005
C  C232  1  0.19940000  0.63450000  0.13450000  1.0 -0.0852594005
C  C233  1  0.63450000  0.13450000  0.19940000  1.0 -0.0852594005
C  C234  1  0.36550000  0.13450000  0.80060000  1.0 -0.0852594005
C  C235  1  0.36550000  0.86550000  0.19940000  1.0 -0.0852594005
C  C236  1  0.63450000  0.86550000  0.80060000  1.0 -0.0852594005
C  C237  1  0.13450000  0.80060000  0.36550000  1.0 -0.0852594005
C  C238  1  0.13450000  0.19940000  0.63450000  1.0 -0.0852594005
C  C239  1  0.86550000  0.80060000  0.63450000  1.0 -0.0852594005
C  C240  1  0.86550000  0.19940000  0.36550000  1.0 -0.0852594005
C  C241  1  0.36550000  0.69940000  0.36550000  1.0 -0.0852594005
C  C242  1  0.63450000  0.30060000  0.36550000  1.0 -0.0852594005
C  C243  1  0.63450000  0.69940000  0.63450000  1.0 -0.0852594005
C  C244  1  0.36550000  0.30060000  0.63450000  1.0 -0.0852594005
C  C245  1  0.86550000  0.86550000  0.69940000  1.0 -0.0852594005
C  C246  1  0.86550000  0.13450000  0.30060000  1.0 -0.0852594005
C  C247  1  0.13450000  0.13450000  0.69940000  1.0 -0.0852594005
C  C248  1  0.13450000  0.86550000  0.30060000  1.0 -0.0852594005
C  C249  1  0.36550000  0.36550000  0.30060000  1.0 -0.0852594005
C  C250  1  0.63450000  0.36550000  0.69940000  1.0 -0.0852594005
C  C251  1  0.63450000  0.63450000  0.30060000  1.0 -0.0852594005
C  C252  1  0.36550000  0.63450000  0.69940000  1.0 -0.0852594005
C  C253  1  0.86550000  0.69940000  0.13450000  1.0 -0.0852594005
C  C254  1  0.86550000  0.30060000  0.86550000  1.0 -0.0852594005
C  C255  1  0.13450000  0.69940000  0.86550000  1.0 -0.0852594005
C  C256  1  0.13450000  0.30060000  0.13450000  1.0 -0.0852594005
C  C257  1  0.63450000  0.30060000  0.63450000  1.0 -0.0852594005
C  C258  1  0.36550000  0.69940000  0.63450000  1.0 -0.0852594005
C  C259  1  0.36550000  0.30060000  0.36550000  1.0 -0.0852594005
C  C260  1  0.63450000  0.69940000  0.36550000  1.0 -0.0852594005
C  C261  1  0.13450000  0.13450000  0.30060000  1.0 -0.0852594005
C  C262  1  0.13450000  0.86550000  0.69940000  1.0 -0.0852594005
C  C263  1  0.86550000  0.86550000  0.30060000  1.0 -0.0852594005
C  C264  1  0.86550000  0.13450000  0.69940000  1.0 -0.0852594005
C  C265  1  0.63450000  0.63450000  0.69940000  1.0 -0.0852594005
C  C266  1  0.36550000  0.63450000  0.30060000  1.0 -0.0852594005
C  C267  1  0.36550000  0.36550000  0.69940000  1.0 -0.0852594005
C  C268  1  0.63450000  0.36550000  0.30060000  1.0 -0.0852594005
C  C269  1  0.13450000  0.30060000  0.86550000  1.0 -0.0852594005
C  C270  1  0.13450000  0.69940000  0.13450000  1.0 -0.0852594005
C  C271  1  0.86550000  0.30060000  0.13450000  1.0 -0.0852594005
C  C272  1  0.86550000  0.69940000  0.86550000  1.0 -0.0852594005
C  C273  1  0.69940000  0.86550000  0.86550000  1.0 -0.0852594005
C  C274  1  0.30060000  0.86550000  0.13450000  1.0 -0.0852594005
C  C275  1  0.69940000  0.13450000  0.13450000  1.0 -0.0852594005
C  C276  1  0.30060000  0.13450000  0.86550000  1.0 -0.0852594005
C  C277  1  0.69940000  0.36550000  0.63450000  1.0 -0.0852594005
C  C278  1  0.30060000  0.63450000  0.63450000  1.0 -0.0852594005
C  C279  1  0.69940000  0.63450000  0.36550000  1.0 -0.0852594005
C  C280  1  0.30060000  0.36550000  0.36550000  1.0 -0.0852594005
C  C281  1  0.30060000  0.13450000  0.13450000  1.0 -0.0852594005
C  C282  1  0.69940000  0.13450000  0.86550000  1.0 -0.0852594005
C  C283  1  0.30060000  0.86550000  0.86550000  1.0 -0.0852594005
C  C284  1  0.69940000  0.86550000  0.13450000  1.0 -0.0852594005
C  C285  1  0.30060000  0.63450000  0.36550000  1.0 -0.0852594005
C  C286  1  0.69940000  0.36550000  0.36550000  1.0 -0.0852594005
C  C287  1  0.30060000  0.36550000  0.63450000  1.0 -0.0852594005
C  C288  1  0.69940000  0.63450000  0.63450000  1.0 -0.0852594005
O  O1  1  0.31660000  0.24310000  0.94780000  1.0 -0.5152574728
O  O2  1  0.68340000  0.75690000  0.94780000  1.0 -0.5152574728
O  O3  1  0.68340000  0.24310000  0.05220000  1.0 -0.5152574728
O  O4  1  0.31660000  0.75690000  0.05220000  1.0 -0.5152574728
O  O5  1  0.94780000  0.31660000  0.24310000  1.0 -0.5152574728
O  O6  1  0.94780000  0.68340000  0.75690000  1.0 -0.5152574728
O  O7  1  0.05220000  0.68340000  0.24310000  1.0 -0.5152574728
O  O8  1  0.05220000  0.31660000  0.75690000  1.0 -0.5152574728
O  O9  1  0.24310000  0.94780000  0.31660000  1.0 -0.5152574728
O  O10  1  0.75690000  0.94780000  0.68340000  1.0 -0.5152574728
O  O11  1  0.24310000  0.05220000  0.68340000  1.0 -0.5152574728
O  O12  1  0.75690000  0.05220000  0.31660000  1.0 -0.5152574728
O  O13  1  0.24310000  0.31660000  0.05220000  1.0 -0.5152574728
O  O14  1  0.75690000  0.68340000  0.05220000  1.0 -0.5152574728
O  O15  1  0.24310000  0.68340000  0.94780000  1.0 -0.5152574728
O  O16  1  0.75690000  0.31660000  0.94780000  1.0 -0.5152574728
O  O17  1  0.31660000  0.94780000  0.75690000  1.0 -0.5152574728
O  O18  1  0.68340000  0.94780000  0.24310000  1.0 -0.5152574728
O  O19  1  0.68340000  0.05220000  0.75690000  1.0 -0.5152574728
O  O20  1  0.31660000  0.05220000  0.24310000  1.0 -0.5152574728
O  O21  1  0.94780000  0.24310000  0.68340000  1.0 -0.5152574728
O  O22  1  0.94780000  0.75690000  0.31660000  1.0 -0.5152574728
O  O23  1  0.05220000  0.24310000  0.31660000  1.0 -0.5152574728
O  O24  1  0.05220000  0.75690000  0.68340000  1.0 -0.5152574728
O  O25  1  0.68340000  0.75690000  0.05220000  1.0 -0.5152574728
O  O26  1  0.31660000  0.24310000  0.05220000  1.0 -0.5152574728
O  O27  1  0.31660000  0.75690000  0.94780000  1.0 -0.5152574728
O  O28  1  0.68340000  0.24310000  0.94780000  1.0 -0.5152574728
O  O29  1  0.05220000  0.68340000  0.75690000  1.0 -0.5152574728
O  O30  1  0.05220000  0.31660000  0.24310000  1.0 -0.5152574728
O  O31  1  0.94780000  0.31660000  0.75690000  1.0 -0.5152574728
O  O32  1  0.94780000  0.68340000  0.24310000  1.0 -0.5152574728
O  O33  1  0.75690000  0.05220000  0.68340000  1.0 -0.5152574728
O  O34  1  0.24310000  0.05220000  0.31660000  1.0 -0.5152574728
O  O35  1  0.75690000  0.94780000  0.31660000  1.0 -0.5152574728
O  O36  1  0.24310000  0.94780000  0.68340000  1.0 -0.5152574728
O  O37  1  0.75690000  0.68340000  0.94780000  1.0 -0.5152574728
O  O38  1  0.24310000  0.31660000  0.94780000  1.0 -0.5152574728
O  O39  1  0.75690000  0.31660000  0.05220000  1.0 -0.5152574728
O  O40  1  0.24310000  0.68340000  0.05220000  1.0 -0.5152574728
O  O41  1  0.68340000  0.05220000  0.24310000  1.0 -0.5152574728
O  O42  1  0.31660000  0.05220000  0.75690000  1.0 -0.5152574728
O  O43  1  0.31660000  0.94780000  0.24310000  1.0 -0.5152574728
O  O44  1  0.68340000  0.94780000  0.75690000  1.0 -0.5152574728
O  O45  1  0.05220000  0.75690000  0.31660000  1.0 -0.5152574728
O  O46  1  0.05220000  0.24310000  0.68340000  1.0 -0.5152574728
O  O47  1  0.94780000  0.75690000  0.68340000  1.0 -0.5152574728
O  O48  1  0.94780000  0.24310000  0.31660000  1.0 -0.5152574728
O  O49  1  0.31660000  0.74310000  0.44780000  1.0 -0.5152574728
O  O50  1  0.68340000  0.25690000  0.44780000  1.0 -0.5152574728
O  O51  1  0.68340000  0.74310000  0.55220000  1.0 -0.5152574728
O  O52  1  0.31660000  0.25690000  0.55220000  1.0 -0.5152574728
O  O53  1  0.94780000  0.81660000  0.74310000  1.0 -0.5152574728
O  O54  1  0.94780000  0.18340000  0.25690000  1.0 -0.5152574728
O  O55  1  0.05220000  0.18340000  0.74310000  1.0 -0.5152574728
O  O56  1  0.05220000  0.81660000  0.25690000  1.0 -0.5152574728
O  O57  1  0.24310000  0.44780000  0.81660000  1.0 -0.5152574728
O  O58  1  0.75690000  0.44780000  0.18340000  1.0 -0.5152574728
O  O59  1  0.24310000  0.55220000  0.18340000  1.0 -0.5152574728
O  O60  1  0.75690000  0.55220000  0.81660000  1.0 -0.5152574728
O  O61  1  0.24310000  0.81660000  0.55220000  1.0 -0.5152574728
O  O62  1  0.75690000  0.18340000  0.55220000  1.0 -0.5152574728
O  O63  1  0.24310000  0.18340000  0.44780000  1.0 -0.5152574728
O  O64  1  0.75690000  0.81660000  0.44780000  1.0 -0.5152574728
O  O65  1  0.31660000  0.44780000  0.25690000  1.0 -0.5152574728
O  O66  1  0.68340000  0.44780000  0.74310000  1.0 -0.5152574728
O  O67  1  0.68340000  0.55220000  0.25690000  1.0 -0.5152574728
O  O68  1  0.31660000  0.55220000  0.74310000  1.0 -0.5152574728
O  O69  1  0.94780000  0.74310000  0.18340000  1.0 -0.5152574728
O  O70  1  0.94780000  0.25690000  0.81660000  1.0 -0.5152574728
O  O71  1  0.05220000  0.74310000  0.81660000  1.0 -0.5152574728
O  O72  1  0.05220000  0.25690000  0.18340000  1.0 -0.5152574728
O  O73  1  0.68340000  0.25690000  0.55220000  1.0 -0.5152574728
O  O74  1  0.31660000  0.74310000  0.55220000  1.0 -0.5152574728
O  O75  1  0.31660000  0.25690000  0.44780000  1.0 -0.5152574728
O  O76  1  0.68340000  0.74310000  0.44780000  1.0 -0.5152574728
O  O77  1  0.05220000  0.18340000  0.25690000  1.0 -0.5152574728
O  O78  1  0.05220000  0.81660000  0.74310000  1.0 -0.5152574728
O  O79  1  0.94780000  0.81660000  0.25690000  1.0 -0.5152574728
O  O80  1  0.94780000  0.18340000  0.74310000  1.0 -0.5152574728
O  O81  1  0.75690000  0.55220000  0.18340000  1.0 -0.5152574728
O  O82  1  0.24310000  0.55220000  0.81660000  1.0 -0.5152574728
O  O83  1  0.75690000  0.44780000  0.81660000  1.0 -0.5152574728
O  O84  1  0.24310000  0.44780000  0.18340000  1.0 -0.5152574728
O  O85  1  0.75690000  0.18340000  0.44780000  1.0 -0.5152574728
O  O86  1  0.24310000  0.81660000  0.44780000  1.0 -0.5152574728
O  O87  1  0.75690000  0.81660000  0.55220000  1.0 -0.5152574728
O  O88  1  0.24310000  0.18340000  0.55220000  1.0 -0.5152574728
O  O89  1  0.68340000  0.55220000  0.74310000  1.0 -0.5152574728
O  O90  1  0.31660000  0.55220000  0.25690000  1.0 -0.5152574728
O  O91  1  0.31660000  0.44780000  0.74310000  1.0 -0.5152574728
O  O92  1  0.68340000  0.44780000  0.25690000  1.0 -0.5152574728
O  O93  1  0.05220000  0.25690000  0.81660000  1.0 -0.5152574728
O  O94  1  0.05220000  0.74310000  0.18340000  1.0 -0.5152574728
O  O95  1  0.94780000  0.25690000  0.18340000  1.0 -0.5152574728
O  O96  1  0.94780000  0.74310000  0.81660000  1.0 -0.5152574728
O  O97  1  0.81660000  0.24310000  0.44780000  1.0 -0.5152574728
O  O98  1  0.18340000  0.75690000  0.44780000  1.0 -0.5152574728
O  O99  1  0.18340000  0.24310000  0.55220000  1.0 -0.5152574728
O  O100  1  0.81660000  0.75690000  0.55220000  1.0 -0.5152574728
O  O101  1  0.44780000  0.31660000  0.74310000  1.0 -0.5152574728
O  O102  1  0.44780000  0.68340000  0.25690000  1.0 -0.5152574728
O  O103  1  0.55220000  0.68340000  0.74310000  1.0 -0.5152574728
O  O104  1  0.55220000  0.31660000  0.25690000  1.0 -0.5152574728
O  O105  1  0.74310000  0.94780000  0.81660000  1.0 -0.5152574728
O  O106  1  0.25690000  0.94780000  0.18340000  1.0 -0.5152574728
O  O107  1  0.74310000  0.05220000  0.18340000  1.0 -0.5152574728
O  O108  1  0.25690000  0.05220000  0.81660000  1.0 -0.5152574728
O  O109  1  0.74310000  0.31660000  0.55220000  1.0 -0.5152574728
O  O110  1  0.25690000  0.68340000  0.55220000  1.0 -0.5152574728
O  O111  1  0.74310000  0.68340000  0.44780000  1.0 -0.5152574728
O  O112  1  0.25690000  0.31660000  0.44780000  1.0 -0.5152574728
O  O113  1  0.81660000  0.94780000  0.25690000  1.0 -0.5152574728
O  O114  1  0.18340000  0.94780000  0.74310000  1.0 -0.5152574728
O  O115  1  0.18340000  0.05220000  0.25690000  1.0 -0.5152574728
O  O116  1  0.81660000  0.05220000  0.74310000  1.0 -0.5152574728
O  O117  1  0.44780000  0.24310000  0.18340000  1.0 -0.5152574728
O  O118  1  0.44780000  0.75690000  0.81660000  1.0 -0.5152574728
O  O119  1  0.55220000  0.24310000  0.81660000  1.0 -0.5152574728
O  O120  1  0.55220000  0.75690000  0.18340000  1.0 -0.5152574728
O  O121  1  0.18340000  0.75690000  0.55220000  1.0 -0.5152574728
O  O122  1  0.81660000  0.24310000  0.55220000  1.0 -0.5152574728
O  O123  1  0.81660000  0.75690000  0.44780000  1.0 -0.5152574728
O  O124  1  0.18340000  0.24310000  0.44780000  1.0 -0.5152574728
O  O125  1  0.55220000  0.68340000  0.25690000  1.0 -0.5152574728
O  O126  1  0.55220000  0.31660000  0.74310000  1.0 -0.5152574728
O  O127  1  0.44780000  0.31660000  0.25690000  1.0 -0.5152574728
O  O128  1  0.44780000  0.68340000  0.74310000  1.0 -0.5152574728
O  O129  1  0.25690000  0.05220000  0.18340000  1.0 -0.5152574728
O  O130  1  0.74310000  0.05220000  0.81660000  1.0 -0.5152574728
O  O131  1  0.25690000  0.94780000  0.81660000  1.0 -0.5152574728
O  O132  1  0.74310000  0.94780000  0.18340000  1.0 -0.5152574728
O  O133  1  0.25690000  0.68340000  0.44780000  1.0 -0.5152574728
O  O134  1  0.74310000  0.31660000  0.44780000  1.0 -0.5152574728
O  O135  1  0.25690000  0.31660000  0.55220000  1.0 -0.5152574728
O  O136  1  0.74310000  0.68340000  0.55220000  1.0 -0.5152574728
O  O137  1  0.18340000  0.05220000  0.74310000  1.0 -0.5152574728
O  O138  1  0.81660000  0.05220000  0.25690000  1.0 -0.5152574728
O  O139  1  0.81660000  0.94780000  0.74310000  1.0 -0.5152574728
O  O140  1  0.18340000  0.94780000  0.25690000  1.0 -0.5152574728
O  O141  1  0.55220000  0.75690000  0.81660000  1.0 -0.5152574728
O  O142  1  0.55220000  0.24310000  0.18340000  1.0 -0.5152574728
O  O143  1  0.44780000  0.75690000  0.18340000  1.0 -0.5152574728
O  O144  1  0.44780000  0.24310000  0.81660000  1.0 -0.5152574728
O  O145  1  0.81660000  0.74310000  0.94780000  1.0 -0.5152574728
O  O146  1  0.18340000  0.25690000  0.94780000  1.0 -0.5152574728
O  O147  1  0.18340000  0.74310000  0.05220000  1.0 -0.5152574728
O  O148  1  0.81660000  0.25690000  0.05220000  1.0 -0.5152574728
O  O149  1  0.44780000  0.81660000  0.24310000  1.0 -0.5152574728
O  O150  1  0.44780000  0.18340000  0.75690000  1.0 -0.5152574728
O  O151  1  0.55220000  0.18340000  0.24310000  1.0 -0.5152574728
O  O152  1  0.55220000  0.81660000  0.75690000  1.0 -0.5152574728
O  O153  1  0.74310000  0.44780000  0.31660000  1.0 -0.5152574728
O  O154  1  0.25690000  0.44780000  0.68340000  1.0 -0.5152574728
O  O155  1  0.74310000  0.55220000  0.68340000  1.0 -0.5152574728
O  O156  1  0.25690000  0.55220000  0.31660000  1.0 -0.5152574728
O  O157  1  0.74310000  0.81660000  0.05220000  1.0 -0.5152574728
O  O158  1  0.25690000  0.18340000  0.05220000  1.0 -0.5152574728
O  O159  1  0.74310000  0.18340000  0.94780000  1.0 -0.5152574728
O  O160  1  0.25690000  0.81660000  0.94780000  1.0 -0.5152574728
O  O161  1  0.81660000  0.44780000  0.75690000  1.0 -0.5152574728
O  O162  1  0.18340000  0.44780000  0.24310000  1.0 -0.5152574728
O  O163  1  0.18340000  0.55220000  0.75690000  1.0 -0.5152574728
O  O164  1  0.81660000  0.55220000  0.24310000  1.0 -0.5152574728
O  O165  1  0.44780000  0.74310000  0.68340000  1.0 -0.5152574728
O  O166  1  0.44780000  0.25690000  0.31660000  1.0 -0.5152574728
O  O167  1  0.55220000  0.74310000  0.31660000  1.0 -0.5152574728
O  O168  1  0.55220000  0.25690000  0.68340000  1.0 -0.5152574728
O  O169  1  0.18340000  0.25690000  0.05220000  1.0 -0.5152574728
O  O170  1  0.81660000  0.74310000  0.05220000  1.0 -0.5152574728
O  O171  1  0.81660000  0.25690000  0.94780000  1.0 -0.5152574728
O  O172  1  0.18340000  0.74310000  0.94780000  1.0 -0.5152574728
O  O173  1  0.55220000  0.18340000  0.75690000  1.0 -0.5152574728
O  O174  1  0.55220000  0.81660000  0.24310000  1.0 -0.5152574728
O  O175  1  0.44780000  0.81660000  0.75690000  1.0 -0.5152574728
O  O176  1  0.44780000  0.18340000  0.24310000  1.0 -0.5152574728
O  O177  1  0.25690000  0.55220000  0.68340000  1.0 -0.5152574728
O  O178  1  0.74310000  0.55220000  0.31660000  1.0 -0.5152574728
O  O179  1  0.25690000  0.44780000  0.31660000  1.0 -0.5152574728
O  O180  1  0.74310000  0.44780000  0.68340000  1.0 -0.5152574728
O  O181  1  0.25690000  0.18340000  0.94780000  1.0 -0.5152574728
O  O182  1  0.74310000  0.81660000  0.94780000  1.0 -0.5152574728
O  O183  1  0.25690000  0.81660000  0.05220000  1.0 -0.5152574728
O  O184  1  0.74310000  0.18340000  0.05220000  1.0 -0.5152574728
O  O185  1  0.18340000  0.55220000  0.24310000  1.0 -0.5152574728
O  O186  1  0.81660000  0.55220000  0.75690000  1.0 -0.5152574728
O  O187  1  0.81660000  0.44780000  0.24310000  1.0 -0.5152574728
O  O188  1  0.18340000  0.44780000  0.75690000  1.0 -0.5152574728
O  O189  1  0.55220000  0.25690000  0.31660000  1.0 -0.5152574728
O  O190  1  0.55220000  0.74310000  0.68340000  1.0 -0.5152574728
O  O191  1  0.44780000  0.25690000  0.68340000  1.0 -0.5152574728
O  O192  1  0.44780000  0.74310000  0.31660000  1.0 -0.5152574728
>>>>>>> 04b52f8f16bcd5c63e8428b2616e7fe32198d02e
