# DDEC6 charges by PACMAN v1.3 (https://github.com/mtap-research/PACMAN-charge/)
data_IRMOF-1_pacman
_symmetry_space_group_name_H-M   'P 1'
_cell_length_a   25.83200000
_cell_length_b   25.83200000
_cell_length_c   25.83200000
_cell_angle_alpha   90.00000000
_cell_angle_beta   90.00000000
_cell_angle_gamma   90.00000000
_symmetry_Int_Tables_number   1
_chemical_formula_structural   Zn4H12C24O13
_chemical_formula_sum   'Zn32 H96 C192 O104'
_cell_volume   17237.49273037
_cell_formula_units_Z   8
loop_
 _symmetry_equiv_pos_site_id
 _symmetry_equiv_pos_as_xyz
  1  'x, y, z'
loop_
 _atom_site_type_symbol
 _atom_site_label
 _atom_site_symmetry_multiplicity
 _atom_site_fract_x
 _atom_site_fract_y
 _atom_site_fract_z
 _atom_site_occupancy
 _atom_site_charge
<<<<<<< HEAD
Zn  Zn1  1  0.29340000  0.20660000  0.20660000  1.0 0.9728250842
Zn  Zn2  1  0.70660000  0.79340000  0.20660000  1.0 0.9728250842
Zn  Zn3  1  0.70660000  0.20660000  0.79340000  1.0 0.9728250842
Zn  Zn4  1  0.29340000  0.79340000  0.79340000  1.0 0.9728250842
Zn  Zn5  1  0.20660000  0.29340000  0.20660000  1.0 0.9728250842
Zn  Zn6  1  0.20660000  0.70660000  0.79340000  1.0 0.9728250842
Zn  Zn7  1  0.79340000  0.70660000  0.20660000  1.0 0.9728250842
Zn  Zn8  1  0.79340000  0.29340000  0.79340000  1.0 0.9728250842
Zn  Zn9  1  0.20660000  0.20660000  0.29340000  1.0 0.9728250842
Zn  Zn10  1  0.79340000  0.20660000  0.70660000  1.0 0.9728250842
Zn  Zn11  1  0.20660000  0.79340000  0.70660000  1.0 0.9728250842
Zn  Zn12  1  0.79340000  0.79340000  0.29340000  1.0 0.9728250842
Zn  Zn13  1  0.20660000  0.29340000  0.79340000  1.0 0.9728250842
Zn  Zn14  1  0.79340000  0.70660000  0.79340000  1.0 0.9728250842
Zn  Zn15  1  0.20660000  0.70660000  0.20660000  1.0 0.9728250842
Zn  Zn16  1  0.79340000  0.29340000  0.20660000  1.0 0.9728250842
Zn  Zn17  1  0.29340000  0.20660000  0.79340000  1.0 0.9728250842
Zn  Zn18  1  0.70660000  0.20660000  0.20660000  1.0 0.9728250842
Zn  Zn19  1  0.70660000  0.79340000  0.79340000  1.0 0.9728250842
Zn  Zn20  1  0.29340000  0.79340000  0.20660000  1.0 0.9728250842
Zn  Zn21  1  0.20660000  0.20660000  0.70660000  1.0 0.9728250842
Zn  Zn22  1  0.20660000  0.79340000  0.29340000  1.0 0.9728250842
Zn  Zn23  1  0.79340000  0.20660000  0.29340000  1.0 0.9728250842
Zn  Zn24  1  0.79340000  0.79340000  0.70660000  1.0 0.9728250842
Zn  Zn25  1  0.29340000  0.70660000  0.70660000  1.0 0.9728250842
Zn  Zn26  1  0.70660000  0.29340000  0.70660000  1.0 0.9728250842
Zn  Zn27  1  0.70660000  0.70660000  0.29340000  1.0 0.9728250842
Zn  Zn28  1  0.29340000  0.29340000  0.29340000  1.0 0.9728250842
Zn  Zn29  1  0.29340000  0.70660000  0.29340000  1.0 0.9728250842
Zn  Zn30  1  0.70660000  0.70660000  0.70660000  1.0 0.9728250842
Zn  Zn31  1  0.70660000  0.29340000  0.29340000  1.0 0.9728250842
Zn  Zn32  1  0.29340000  0.29340000  0.70660000  1.0 0.9728250842
H  H1  1  0.30490000  0.19510000  0.04480000  1.0 0.1266211411
H  H2  1  0.69510000  0.80490000  0.04480000  1.0 0.1266211411
H  H3  1  0.69510000  0.19510000  0.95520000  1.0 0.1266211411
H  H4  1  0.30490000  0.80490000  0.95520000  1.0 0.1266211411
H  H5  1  0.04480000  0.30490000  0.19510000  1.0 0.1266211411
H  H6  1  0.04480000  0.69510000  0.80490000  1.0 0.1266211411
H  H7  1  0.95520000  0.69510000  0.19510000  1.0 0.1266211411
H  H8  1  0.95520000  0.30490000  0.80490000  1.0 0.1266211411
H  H9  1  0.19510000  0.04480000  0.30490000  1.0 0.1266211411
H  H10  1  0.80490000  0.04480000  0.69510000  1.0 0.1266211411
H  H11  1  0.19510000  0.95520000  0.69510000  1.0 0.1266211411
H  H12  1  0.80490000  0.95520000  0.30490000  1.0 0.1266211411
H  H13  1  0.19510000  0.30490000  0.95520000  1.0 0.1266211411
H  H14  1  0.80490000  0.69510000  0.95520000  1.0 0.1266211411
H  H15  1  0.19510000  0.69510000  0.04480000  1.0 0.1266211411
H  H16  1  0.80490000  0.30490000  0.04480000  1.0 0.1266211411
H  H17  1  0.30490000  0.04480000  0.80490000  1.0 0.1266211411
H  H18  1  0.69510000  0.04480000  0.19510000  1.0 0.1266211411
H  H19  1  0.69510000  0.95520000  0.80490000  1.0 0.1266211411
H  H20  1  0.30490000  0.95520000  0.19510000  1.0 0.1266211411
H  H21  1  0.04480000  0.19510000  0.69510000  1.0 0.1266211411
H  H22  1  0.04480000  0.80490000  0.30490000  1.0 0.1266211411
H  H23  1  0.95520000  0.19510000  0.30490000  1.0 0.1266211411
H  H24  1  0.95520000  0.80490000  0.69510000  1.0 0.1266211411
H  H25  1  0.69510000  0.80490000  0.95520000  1.0 0.1266211411
H  H26  1  0.30490000  0.19510000  0.95520000  1.0 0.1266211411
H  H27  1  0.30490000  0.80490000  0.04480000  1.0 0.1266211411
H  H28  1  0.69510000  0.19510000  0.04480000  1.0 0.1266211411
H  H29  1  0.95520000  0.69510000  0.80490000  1.0 0.1266211411
H  H30  1  0.95520000  0.30490000  0.19510000  1.0 0.1266211411
H  H31  1  0.04480000  0.30490000  0.80490000  1.0 0.1266211411
H  H32  1  0.04480000  0.69510000  0.19510000  1.0 0.1266211411
H  H33  1  0.80490000  0.95520000  0.69510000  1.0 0.1266211411
H  H34  1  0.19510000  0.95520000  0.30490000  1.0 0.1266211411
H  H35  1  0.80490000  0.04480000  0.30490000  1.0 0.1266211411
H  H36  1  0.19510000  0.04480000  0.69510000  1.0 0.1266211411
H  H37  1  0.80490000  0.69510000  0.04480000  1.0 0.1266211411
H  H38  1  0.19510000  0.30490000  0.04480000  1.0 0.1266211411
H  H39  1  0.80490000  0.30490000  0.95520000  1.0 0.1266211411
H  H40  1  0.19510000  0.69510000  0.95520000  1.0 0.1266211411
H  H41  1  0.69510000  0.95520000  0.19510000  1.0 0.1266211411
H  H42  1  0.30490000  0.95520000  0.80490000  1.0 0.1266211411
H  H43  1  0.30490000  0.04480000  0.19510000  1.0 0.1266211411
H  H44  1  0.69510000  0.04480000  0.80490000  1.0 0.1266211411
H  H45  1  0.95520000  0.80490000  0.30490000  1.0 0.1266211411
H  H46  1  0.95520000  0.19510000  0.69510000  1.0 0.1266211411
H  H47  1  0.04480000  0.80490000  0.69510000  1.0 0.1266211411
H  H48  1  0.04480000  0.19510000  0.30490000  1.0 0.1266211411
H  H49  1  0.30490000  0.69510000  0.54480000  1.0 0.1266211411
H  H50  1  0.69510000  0.30490000  0.54480000  1.0 0.1266211411
H  H51  1  0.69510000  0.69510000  0.45520000  1.0 0.1266211411
H  H52  1  0.30490000  0.30490000  0.45520000  1.0 0.1266211411
H  H53  1  0.19510000  0.54480000  0.80490000  1.0 0.1266211411
H  H54  1  0.80490000  0.54480000  0.19510000  1.0 0.1266211411
H  H55  1  0.19510000  0.45520000  0.19510000  1.0 0.1266211411
H  H56  1  0.80490000  0.45520000  0.80490000  1.0 0.1266211411
H  H57  1  0.19510000  0.80490000  0.45520000  1.0 0.1266211411
H  H58  1  0.80490000  0.19510000  0.45520000  1.0 0.1266211411
H  H59  1  0.19510000  0.19510000  0.54480000  1.0 0.1266211411
H  H60  1  0.80490000  0.80490000  0.54480000  1.0 0.1266211411
H  H61  1  0.30490000  0.54480000  0.30490000  1.0 0.1266211411
H  H62  1  0.69510000  0.54480000  0.69510000  1.0 0.1266211411
H  H63  1  0.69510000  0.45520000  0.30490000  1.0 0.1266211411
H  H64  1  0.30490000  0.45520000  0.69510000  1.0 0.1266211411
H  H65  1  0.69510000  0.30490000  0.45520000  1.0 0.1266211411
H  H66  1  0.30490000  0.69510000  0.45520000  1.0 0.1266211411
H  H67  1  0.30490000  0.30490000  0.54480000  1.0 0.1266211411
H  H68  1  0.69510000  0.69510000  0.54480000  1.0 0.1266211411
H  H69  1  0.80490000  0.45520000  0.19510000  1.0 0.1266211411
H  H70  1  0.19510000  0.45520000  0.80490000  1.0 0.1266211411
H  H71  1  0.80490000  0.54480000  0.80490000  1.0 0.1266211411
H  H72  1  0.19510000  0.54480000  0.19510000  1.0 0.1266211411
H  H73  1  0.80490000  0.19510000  0.54480000  1.0 0.1266211411
H  H74  1  0.19510000  0.80490000  0.54480000  1.0 0.1266211411
H  H75  1  0.80490000  0.80490000  0.45520000  1.0 0.1266211411
H  H76  1  0.19510000  0.19510000  0.45520000  1.0 0.1266211411
H  H77  1  0.69510000  0.45520000  0.69510000  1.0 0.1266211411
H  H78  1  0.30490000  0.45520000  0.30490000  1.0 0.1266211411
H  H79  1  0.30490000  0.54480000  0.69510000  1.0 0.1266211411
H  H80  1  0.69510000  0.54480000  0.30490000  1.0 0.1266211411
H  H81  1  0.54480000  0.30490000  0.69510000  1.0 0.1266211411
H  H82  1  0.54480000  0.69510000  0.30490000  1.0 0.1266211411
H  H83  1  0.45520000  0.69510000  0.69510000  1.0 0.1266211411
H  H84  1  0.45520000  0.30490000  0.30490000  1.0 0.1266211411
H  H85  1  0.54480000  0.19510000  0.19510000  1.0 0.1266211411
H  H86  1  0.54480000  0.80490000  0.80490000  1.0 0.1266211411
H  H87  1  0.45520000  0.19510000  0.80490000  1.0 0.1266211411
H  H88  1  0.45520000  0.80490000  0.19510000  1.0 0.1266211411
H  H89  1  0.45520000  0.69510000  0.30490000  1.0 0.1266211411
H  H90  1  0.45520000  0.30490000  0.69510000  1.0 0.1266211411
H  H91  1  0.54480000  0.30490000  0.30490000  1.0 0.1266211411
H  H92  1  0.54480000  0.69510000  0.69510000  1.0 0.1266211411
H  H93  1  0.45520000  0.80490000  0.80490000  1.0 0.1266211411
H  H94  1  0.45520000  0.19510000  0.19510000  1.0 0.1266211411
H  H95  1  0.54480000  0.80490000  0.19510000  1.0 0.1266211411
H  H96  1  0.54480000  0.19510000  0.80490000  1.0 0.1266211411
C  C1  1  0.25000000  0.25000000  0.11130000  1.0 0.5987263661
C  C2  1  0.75000000  0.75000000  0.11130000  1.0 0.5987263661
C  C3  1  0.75000000  0.25000000  0.88870000  1.0 0.5987263661
C  C4  1  0.25000000  0.75000000  0.88870000  1.0 0.5987263661
C  C5  1  0.11130000  0.25000000  0.25000000  1.0 0.5987263661
C  C6  1  0.11130000  0.75000000  0.75000000  1.0 0.5987263661
C  C7  1  0.88870000  0.75000000  0.25000000  1.0 0.5987263661
C  C8  1  0.88870000  0.25000000  0.75000000  1.0 0.5987263661
C  C9  1  0.25000000  0.11130000  0.25000000  1.0 0.5987263661
C  C10  1  0.75000000  0.11130000  0.75000000  1.0 0.5987263661
C  C11  1  0.25000000  0.88870000  0.75000000  1.0 0.5987263661
C  C12  1  0.75000000  0.88870000  0.25000000  1.0 0.5987263661
C  C13  1  0.25000000  0.25000000  0.88870000  1.0 0.5987263661
C  C14  1  0.75000000  0.75000000  0.88870000  1.0 0.5987263661
C  C15  1  0.25000000  0.75000000  0.11130000  1.0 0.5987263661
C  C16  1  0.75000000  0.25000000  0.11130000  1.0 0.5987263661
C  C17  1  0.25000000  0.11130000  0.75000000  1.0 0.5987263661
C  C18  1  0.75000000  0.11130000  0.25000000  1.0 0.5987263661
C  C19  1  0.75000000  0.88870000  0.75000000  1.0 0.5987263661
C  C20  1  0.25000000  0.88870000  0.25000000  1.0 0.5987263661
C  C21  1  0.11130000  0.25000000  0.75000000  1.0 0.5987263661
C  C22  1  0.11130000  0.75000000  0.25000000  1.0 0.5987263661
C  C23  1  0.88870000  0.25000000  0.25000000  1.0 0.5987263661
C  C24  1  0.88870000  0.75000000  0.75000000  1.0 0.5987263661
C  C25  1  0.25000000  0.75000000  0.61130000  1.0 0.5987263661
C  C26  1  0.75000000  0.25000000  0.61130000  1.0 0.5987263661
C  C27  1  0.75000000  0.75000000  0.38870000  1.0 0.5987263661
C  C28  1  0.25000000  0.25000000  0.38870000  1.0 0.5987263661
C  C29  1  0.25000000  0.61130000  0.75000000  1.0 0.5987263661
C  C30  1  0.75000000  0.61130000  0.25000000  1.0 0.5987263661
C  C31  1  0.25000000  0.38870000  0.25000000  1.0 0.5987263661
C  C32  1  0.75000000  0.38870000  0.75000000  1.0 0.5987263661
C  C33  1  0.25000000  0.75000000  0.38870000  1.0 0.5987263661
C  C34  1  0.75000000  0.25000000  0.38870000  1.0 0.5987263661
C  C35  1  0.25000000  0.25000000  0.61130000  1.0 0.5987263661
C  C36  1  0.75000000  0.75000000  0.61130000  1.0 0.5987263661
C  C37  1  0.25000000  0.61130000  0.25000000  1.0 0.5987263661
C  C38  1  0.75000000  0.61130000  0.75000000  1.0 0.5987263661
C  C39  1  0.75000000  0.38870000  0.25000000  1.0 0.5987263661
C  C40  1  0.25000000  0.38870000  0.75000000  1.0 0.5987263661
C  C41  1  0.61130000  0.25000000  0.75000000  1.0 0.5987263661
C  C42  1  0.61130000  0.75000000  0.25000000  1.0 0.5987263661
C  C43  1  0.38870000  0.75000000  0.75000000  1.0 0.5987263661
C  C44  1  0.38870000  0.25000000  0.25000000  1.0 0.5987263661
C  C45  1  0.61130000  0.25000000  0.25000000  1.0 0.5987263661
C  C46  1  0.61130000  0.75000000  0.75000000  1.0 0.5987263661
C  C47  1  0.38870000  0.25000000  0.75000000  1.0 0.5987263661
C  C48  1  0.38870000  0.75000000  0.25000000  1.0 0.5987263661
C  C49  1  0.25000000  0.25000000  0.05380000  1.0 -0.0356269857
C  C50  1  0.75000000  0.75000000  0.05380000  1.0 -0.0356269857
C  C51  1  0.75000000  0.25000000  0.94620000  1.0 -0.0356269857
C  C52  1  0.25000000  0.75000000  0.94620000  1.0 -0.0356269857
C  C53  1  0.05380000  0.25000000  0.25000000  1.0 -0.0356269857
C  C54  1  0.05380000  0.75000000  0.75000000  1.0 -0.0356269857
C  C55  1  0.94620000  0.75000000  0.25000000  1.0 -0.0356269857
C  C56  1  0.94620000  0.25000000  0.75000000  1.0 -0.0356269857
C  C57  1  0.25000000  0.05380000  0.25000000  1.0 -0.0356269857
C  C58  1  0.75000000  0.05380000  0.75000000  1.0 -0.0356269857
C  C59  1  0.25000000  0.94620000  0.75000000  1.0 -0.0356269857
C  C60  1  0.75000000  0.94620000  0.25000000  1.0 -0.0356269857
C  C61  1  0.25000000  0.25000000  0.94620000  1.0 -0.0356269857
C  C62  1  0.75000000  0.75000000  0.94620000  1.0 -0.0356269857
C  C63  1  0.25000000  0.75000000  0.05380000  1.0 -0.0356269857
C  C64  1  0.75000000  0.25000000  0.05380000  1.0 -0.0356269857
C  C65  1  0.25000000  0.05380000  0.75000000  1.0 -0.0356269857
C  C66  1  0.75000000  0.05380000  0.25000000  1.0 -0.0356269857
C  C67  1  0.75000000  0.94620000  0.75000000  1.0 -0.0356269857
C  C68  1  0.25000000  0.94620000  0.25000000  1.0 -0.0356269857
C  C69  1  0.05380000  0.25000000  0.75000000  1.0 -0.0356269857
C  C70  1  0.05380000  0.75000000  0.25000000  1.0 -0.0356269857
C  C71  1  0.94620000  0.25000000  0.25000000  1.0 -0.0356269857
C  C72  1  0.94620000  0.75000000  0.75000000  1.0 -0.0356269857
C  C73  1  0.25000000  0.75000000  0.55380000  1.0 -0.0356269857
C  C74  1  0.75000000  0.25000000  0.55380000  1.0 -0.0356269857
C  C75  1  0.75000000  0.75000000  0.44620000  1.0 -0.0356269857
C  C76  1  0.25000000  0.25000000  0.44620000  1.0 -0.0356269857
C  C77  1  0.25000000  0.55380000  0.75000000  1.0 -0.0356269857
C  C78  1  0.75000000  0.55380000  0.25000000  1.0 -0.0356269857
C  C79  1  0.25000000  0.44620000  0.25000000  1.0 -0.0356269857
C  C80  1  0.75000000  0.44620000  0.75000000  1.0 -0.0356269857
C  C81  1  0.25000000  0.75000000  0.44620000  1.0 -0.0356269857
C  C82  1  0.75000000  0.25000000  0.44620000  1.0 -0.0356269857
C  C83  1  0.25000000  0.25000000  0.55380000  1.0 -0.0356269857
C  C84  1  0.75000000  0.75000000  0.55380000  1.0 -0.0356269857
C  C85  1  0.25000000  0.55380000  0.25000000  1.0 -0.0356269857
C  C86  1  0.75000000  0.55380000  0.75000000  1.0 -0.0356269857
C  C87  1  0.75000000  0.44620000  0.25000000  1.0 -0.0356269857
C  C88  1  0.25000000  0.44620000  0.75000000  1.0 -0.0356269857
C  C89  1  0.55380000  0.25000000  0.75000000  1.0 -0.0356269857
C  C90  1  0.55380000  0.75000000  0.25000000  1.0 -0.0356269857
C  C91  1  0.44620000  0.75000000  0.75000000  1.0 -0.0356269857
C  C92  1  0.44620000  0.25000000  0.25000000  1.0 -0.0356269857
C  C93  1  0.55380000  0.25000000  0.25000000  1.0 -0.0356269857
C  C94  1  0.55380000  0.75000000  0.75000000  1.0 -0.0356269857
C  C95  1  0.44620000  0.25000000  0.75000000  1.0 -0.0356269857
C  C96  1  0.44620000  0.75000000  0.25000000  1.0 -0.0356269857
C  C97  1  0.28290000  0.21710000  0.02690000  1.0 -0.087207966
C  C98  1  0.71710000  0.78290000  0.02690000  1.0 -0.087207966
C  C99  1  0.71710000  0.21710000  0.97310000  1.0 -0.087207966
C  C100  1  0.28290000  0.78290000  0.97310000  1.0 -0.087207966
C  C101  1  0.02690000  0.28290000  0.21710000  1.0 -0.087207966
C  C102  1  0.02690000  0.71710000  0.78290000  1.0 -0.087207966
C  C103  1  0.97310000  0.71710000  0.21710000  1.0 -0.087207966
C  C104  1  0.97310000  0.28290000  0.78290000  1.0 -0.087207966
C  C105  1  0.21710000  0.02690000  0.28290000  1.0 -0.087207966
C  C106  1  0.78290000  0.02690000  0.71710000  1.0 -0.087207966
C  C107  1  0.21710000  0.97310000  0.71710000  1.0 -0.087207966
C  C108  1  0.78290000  0.97310000  0.28290000  1.0 -0.087207966
C  C109  1  0.21710000  0.28290000  0.97310000  1.0 -0.087207966
C  C110  1  0.78290000  0.71710000  0.97310000  1.0 -0.087207966
C  C111  1  0.21710000  0.71710000  0.02690000  1.0 -0.087207966
C  C112  1  0.78290000  0.28290000  0.02690000  1.0 -0.087207966
C  C113  1  0.28290000  0.02690000  0.78290000  1.0 -0.087207966
C  C114  1  0.71710000  0.02690000  0.21710000  1.0 -0.087207966
C  C115  1  0.71710000  0.97310000  0.78290000  1.0 -0.087207966
C  C116  1  0.28290000  0.97310000  0.21710000  1.0 -0.087207966
C  C117  1  0.02690000  0.21710000  0.71710000  1.0 -0.087207966
C  C118  1  0.02690000  0.78290000  0.28290000  1.0 -0.087207966
C  C119  1  0.97310000  0.21710000  0.28290000  1.0 -0.087207966
C  C120  1  0.97310000  0.78290000  0.71710000  1.0 -0.087207966
C  C121  1  0.71710000  0.78290000  0.97310000  1.0 -0.087207966
C  C122  1  0.28290000  0.21710000  0.97310000  1.0 -0.087207966
C  C123  1  0.28290000  0.78290000  0.02690000  1.0 -0.087207966
C  C124  1  0.71710000  0.21710000  0.02690000  1.0 -0.087207966
C  C125  1  0.97310000  0.71710000  0.78290000  1.0 -0.087207966
C  C126  1  0.97310000  0.28290000  0.21710000  1.0 -0.087207966
C  C127  1  0.02690000  0.28290000  0.78290000  1.0 -0.087207966
C  C128  1  0.02690000  0.71710000  0.21710000  1.0 -0.087207966
C  C129  1  0.78290000  0.97310000  0.71710000  1.0 -0.087207966
C  C130  1  0.21710000  0.97310000  0.28290000  1.0 -0.087207966
C  C131  1  0.78290000  0.02690000  0.28290000  1.0 -0.087207966
C  C132  1  0.21710000  0.02690000  0.71710000  1.0 -0.087207966
C  C133  1  0.78290000  0.71710000  0.02690000  1.0 -0.087207966
C  C134  1  0.21710000  0.28290000  0.02690000  1.0 -0.087207966
C  C135  1  0.78290000  0.28290000  0.97310000  1.0 -0.087207966
C  C136  1  0.21710000  0.71710000  0.97310000  1.0 -0.087207966
C  C137  1  0.71710000  0.97310000  0.21710000  1.0 -0.087207966
C  C138  1  0.28290000  0.97310000  0.78290000  1.0 -0.087207966
C  C139  1  0.28290000  0.02690000  0.21710000  1.0 -0.087207966
C  C140  1  0.71710000  0.02690000  0.78290000  1.0 -0.087207966
C  C141  1  0.97310000  0.78290000  0.28290000  1.0 -0.087207966
C  C142  1  0.97310000  0.21710000  0.71710000  1.0 -0.087207966
C  C143  1  0.02690000  0.78290000  0.71710000  1.0 -0.087207966
C  C144  1  0.02690000  0.21710000  0.28290000  1.0 -0.087207966
C  C145  1  0.28290000  0.71710000  0.52690000  1.0 -0.087207966
C  C146  1  0.71710000  0.28290000  0.52690000  1.0 -0.087207966
C  C147  1  0.71710000  0.71710000  0.47310000  1.0 -0.087207966
C  C148  1  0.28290000  0.28290000  0.47310000  1.0 -0.087207966
C  C149  1  0.21710000  0.52690000  0.78290000  1.0 -0.087207966
C  C150  1  0.78290000  0.52690000  0.21710000  1.0 -0.087207966
C  C151  1  0.21710000  0.47310000  0.21710000  1.0 -0.087207966
C  C152  1  0.78290000  0.47310000  0.78290000  1.0 -0.087207966
C  C153  1  0.21710000  0.78290000  0.47310000  1.0 -0.087207966
C  C154  1  0.78290000  0.21710000  0.47310000  1.0 -0.087207966
C  C155  1  0.21710000  0.21710000  0.52690000  1.0 -0.087207966
C  C156  1  0.78290000  0.78290000  0.52690000  1.0 -0.087207966
C  C157  1  0.28290000  0.52690000  0.28290000  1.0 -0.087207966
C  C158  1  0.71710000  0.52690000  0.71710000  1.0 -0.087207966
C  C159  1  0.71710000  0.47310000  0.28290000  1.0 -0.087207966
C  C160  1  0.28290000  0.47310000  0.71710000  1.0 -0.087207966
C  C161  1  0.71710000  0.28290000  0.47310000  1.0 -0.087207966
C  C162  1  0.28290000  0.71710000  0.47310000  1.0 -0.087207966
C  C163  1  0.28290000  0.28290000  0.52690000  1.0 -0.087207966
C  C164  1  0.71710000  0.71710000  0.52690000  1.0 -0.087207966
C  C165  1  0.78290000  0.47310000  0.21710000  1.0 -0.087207966
C  C166  1  0.21710000  0.47310000  0.78290000  1.0 -0.087207966
C  C167  1  0.78290000  0.52690000  0.78290000  1.0 -0.087207966
C  C168  1  0.21710000  0.52690000  0.21710000  1.0 -0.087207966
C  C169  1  0.78290000  0.21710000  0.52690000  1.0 -0.087207966
C  C170  1  0.21710000  0.78290000  0.52690000  1.0 -0.087207966
C  C171  1  0.78290000  0.78290000  0.47310000  1.0 -0.087207966
C  C172  1  0.21710000  0.21710000  0.47310000  1.0 -0.087207966
C  C173  1  0.71710000  0.47310000  0.71710000  1.0 -0.087207966
C  C174  1  0.28290000  0.47310000  0.28290000  1.0 -0.087207966
C  C175  1  0.28290000  0.52690000  0.71710000  1.0 -0.087207966
C  C176  1  0.71710000  0.52690000  0.28290000  1.0 -0.087207966
C  C177  1  0.52690000  0.28290000  0.71710000  1.0 -0.087207966
C  C178  1  0.52690000  0.71710000  0.28290000  1.0 -0.087207966
C  C179  1  0.47310000  0.71710000  0.71710000  1.0 -0.087207966
C  C180  1  0.47310000  0.28290000  0.28290000  1.0 -0.087207966
C  C181  1  0.52690000  0.21710000  0.21710000  1.0 -0.087207966
C  C182  1  0.52690000  0.78290000  0.78290000  1.0 -0.087207966
C  C183  1  0.47310000  0.21710000  0.78290000  1.0 -0.087207966
C  C184  1  0.47310000  0.78290000  0.21710000  1.0 -0.087207966
C  C185  1  0.47310000  0.71710000  0.28290000  1.0 -0.087207966
C  C186  1  0.47310000  0.28290000  0.71710000  1.0 -0.087207966
C  C187  1  0.52690000  0.28290000  0.28290000  1.0 -0.087207966
C  C188  1  0.52690000  0.71710000  0.71710000  1.0 -0.087207966
C  C189  1  0.47310000  0.78290000  0.78290000  1.0 -0.087207966
C  C190  1  0.47310000  0.21710000  0.21710000  1.0 -0.087207966
C  C191  1  0.52690000  0.78290000  0.21710000  1.0 -0.087207966
C  C192  1  0.52690000  0.21710000  0.78290000  1.0 -0.087207966
O  O1  1  0.25000000  0.25000000  0.25000000  1.0 -1.052912708
O  O2  1  0.75000000  0.75000000  0.25000000  1.0 -1.052912708
O  O3  1  0.75000000  0.25000000  0.75000000  1.0 -1.052912708
O  O4  1  0.25000000  0.75000000  0.75000000  1.0 -1.052912708
O  O5  1  0.25000000  0.25000000  0.75000000  1.0 -1.052912708
O  O6  1  0.75000000  0.75000000  0.75000000  1.0 -1.052912708
O  O7  1  0.25000000  0.75000000  0.25000000  1.0 -1.052912708
O  O8  1  0.75000000  0.25000000  0.25000000  1.0 -1.052912708
O  O9  1  0.28190000  0.21810000  0.13400000  1.0 -0.5574951678
O  O10  1  0.71810000  0.78190000  0.13400000  1.0 -0.5574951678
O  O11  1  0.71810000  0.21810000  0.86600000  1.0 -0.5574951678
O  O12  1  0.28190000  0.78190000  0.86600000  1.0 -0.5574951678
O  O13  1  0.13400000  0.28190000  0.21810000  1.0 -0.5574951678
O  O14  1  0.13400000  0.71810000  0.78190000  1.0 -0.5574951678
O  O15  1  0.86600000  0.71810000  0.21810000  1.0 -0.5574951678
O  O16  1  0.86600000  0.28190000  0.78190000  1.0 -0.5574951678
O  O17  1  0.21810000  0.13400000  0.28190000  1.0 -0.5574951678
O  O18  1  0.78190000  0.13400000  0.71810000  1.0 -0.5574951678
O  O19  1  0.21810000  0.86600000  0.71810000  1.0 -0.5574951678
O  O20  1  0.78190000  0.86600000  0.28190000  1.0 -0.5574951678
O  O21  1  0.21810000  0.28190000  0.86600000  1.0 -0.5574951678
O  O22  1  0.78190000  0.71810000  0.86600000  1.0 -0.5574951678
O  O23  1  0.21810000  0.71810000  0.13400000  1.0 -0.5574951678
O  O24  1  0.78190000  0.28190000  0.13400000  1.0 -0.5574951678
O  O25  1  0.28190000  0.13400000  0.78190000  1.0 -0.5574951678
O  O26  1  0.71810000  0.13400000  0.21810000  1.0 -0.5574951678
O  O27  1  0.71810000  0.86600000  0.78190000  1.0 -0.5574951678
O  O28  1  0.28190000  0.86600000  0.21810000  1.0 -0.5574951678
O  O29  1  0.13400000  0.21810000  0.71810000  1.0 -0.5574951678
O  O30  1  0.13400000  0.78190000  0.28190000  1.0 -0.5574951678
O  O31  1  0.86600000  0.21810000  0.28190000  1.0 -0.5574951678
O  O32  1  0.86600000  0.78190000  0.71810000  1.0 -0.5574951678
O  O33  1  0.71810000  0.78190000  0.86600000  1.0 -0.5574951678
O  O34  1  0.28190000  0.21810000  0.86600000  1.0 -0.5574951678
O  O35  1  0.28190000  0.78190000  0.13400000  1.0 -0.5574951678
O  O36  1  0.71810000  0.21810000  0.13400000  1.0 -0.5574951678
O  O37  1  0.86600000  0.71810000  0.78190000  1.0 -0.5574951678
O  O38  1  0.86600000  0.28190000  0.21810000  1.0 -0.5574951678
O  O39  1  0.13400000  0.28190000  0.78190000  1.0 -0.5574951678
O  O40  1  0.13400000  0.71810000  0.21810000  1.0 -0.5574951678
O  O41  1  0.78190000  0.86600000  0.71810000  1.0 -0.5574951678
O  O42  1  0.21810000  0.86600000  0.28190000  1.0 -0.5574951678
O  O43  1  0.78190000  0.13400000  0.28190000  1.0 -0.5574951678
O  O44  1  0.21810000  0.13400000  0.71810000  1.0 -0.5574951678
O  O45  1  0.78190000  0.71810000  0.13400000  1.0 -0.5574951678
O  O46  1  0.21810000  0.28190000  0.13400000  1.0 -0.5574951678
O  O47  1  0.78190000  0.28190000  0.86600000  1.0 -0.5574951678
O  O48  1  0.21810000  0.71810000  0.86600000  1.0 -0.5574951678
O  O49  1  0.71810000  0.86600000  0.21810000  1.0 -0.5574951678
O  O50  1  0.28190000  0.86600000  0.78190000  1.0 -0.5574951678
O  O51  1  0.28190000  0.13400000  0.21810000  1.0 -0.5574951678
O  O52  1  0.71810000  0.13400000  0.78190000  1.0 -0.5574951678
O  O53  1  0.86600000  0.78190000  0.28190000  1.0 -0.5574951678
O  O54  1  0.86600000  0.21810000  0.71810000  1.0 -0.5574951678
O  O55  1  0.13400000  0.78190000  0.71810000  1.0 -0.5574951678
O  O56  1  0.13400000  0.21810000  0.28190000  1.0 -0.5574951678
O  O57  1  0.28190000  0.71810000  0.63400000  1.0 -0.5574951678
O  O58  1  0.71810000  0.28190000  0.63400000  1.0 -0.5574951678
O  O59  1  0.71810000  0.71810000  0.36600000  1.0 -0.5574951678
O  O60  1  0.28190000  0.28190000  0.36600000  1.0 -0.5574951678
O  O61  1  0.21810000  0.63400000  0.78190000  1.0 -0.5574951678
O  O62  1  0.78190000  0.63400000  0.21810000  1.0 -0.5574951678
O  O63  1  0.21810000  0.36600000  0.21810000  1.0 -0.5574951678
O  O64  1  0.78190000  0.36600000  0.78190000  1.0 -0.5574951678
O  O65  1  0.21810000  0.78190000  0.36600000  1.0 -0.5574951678
O  O66  1  0.78190000  0.21810000  0.36600000  1.0 -0.5574951678
O  O67  1  0.21810000  0.21810000  0.63400000  1.0 -0.5574951678
O  O68  1  0.78190000  0.78190000  0.63400000  1.0 -0.5574951678
O  O69  1  0.28190000  0.63400000  0.28190000  1.0 -0.5574951678
O  O70  1  0.71810000  0.63400000  0.71810000  1.0 -0.5574951678
O  O71  1  0.71810000  0.36600000  0.28190000  1.0 -0.5574951678
O  O72  1  0.28190000  0.36600000  0.71810000  1.0 -0.5574951678
O  O73  1  0.71810000  0.28190000  0.36600000  1.0 -0.5574951678
O  O74  1  0.28190000  0.71810000  0.36600000  1.0 -0.5574951678
O  O75  1  0.28190000  0.28190000  0.63400000  1.0 -0.5574951678
O  O76  1  0.71810000  0.71810000  0.63400000  1.0 -0.5574951678
O  O77  1  0.78190000  0.36600000  0.21810000  1.0 -0.5574951678
O  O78  1  0.21810000  0.36600000  0.78190000  1.0 -0.5574951678
O  O79  1  0.78190000  0.63400000  0.78190000  1.0 -0.5574951678
O  O80  1  0.21810000  0.63400000  0.21810000  1.0 -0.5574951678
O  O81  1  0.78190000  0.21810000  0.63400000  1.0 -0.5574951678
O  O82  1  0.21810000  0.78190000  0.63400000  1.0 -0.5574951678
O  O83  1  0.78190000  0.78190000  0.36600000  1.0 -0.5574951678
O  O84  1  0.21810000  0.21810000  0.36600000  1.0 -0.5574951678
O  O85  1  0.71810000  0.36600000  0.71810000  1.0 -0.5574951678
O  O86  1  0.28190000  0.36600000  0.28190000  1.0 -0.5574951678
O  O87  1  0.28190000  0.63400000  0.71810000  1.0 -0.5574951678
O  O88  1  0.71810000  0.63400000  0.28190000  1.0 -0.5574951678
O  O89  1  0.63400000  0.28190000  0.71810000  1.0 -0.5574951678
O  O90  1  0.63400000  0.71810000  0.28190000  1.0 -0.5574951678
O  O91  1  0.36600000  0.71810000  0.71810000  1.0 -0.5574951678
O  O92  1  0.36600000  0.28190000  0.28190000  1.0 -0.5574951678
O  O93  1  0.63400000  0.21810000  0.21810000  1.0 -0.5574951678
O  O94  1  0.63400000  0.78190000  0.78190000  1.0 -0.5574951678
O  O95  1  0.36600000  0.21810000  0.78190000  1.0 -0.5574951678
O  O96  1  0.36600000  0.78190000  0.21810000  1.0 -0.5574951678
O  O97  1  0.36600000  0.71810000  0.28190000  1.0 -0.5574951678
O  O98  1  0.36600000  0.28190000  0.71810000  1.0 -0.5574951678
O  O99  1  0.63400000  0.28190000  0.28190000  1.0 -0.5574951678
O  O100  1  0.63400000  0.71810000  0.71810000  1.0 -0.5574951678
O  O101  1  0.36600000  0.78190000  0.78190000  1.0 -0.5574951678
O  O102  1  0.36600000  0.21810000  0.21810000  1.0 -0.5574951678
O  O103  1  0.63400000  0.78190000  0.21810000  1.0 -0.5574951678
O  O104  1  0.63400000  0.21810000  0.78190000  1.0 -0.5574951678
=======
Zn  Zn1  1  0.29340000  0.20660000  0.20660000  1.0 0.9733786972
Zn  Zn2  1  0.70660000  0.79340000  0.20660000  1.0 0.9733786972
Zn  Zn3  1  0.70660000  0.20660000  0.79340000  1.0 0.9733786972
Zn  Zn4  1  0.29340000  0.79340000  0.79340000  1.0 0.9733786972
Zn  Zn5  1  0.20660000  0.29340000  0.20660000  1.0 0.9733786972
Zn  Zn6  1  0.20660000  0.70660000  0.79340000  1.0 0.9733786972
Zn  Zn7  1  0.79340000  0.70660000  0.20660000  1.0 0.9733786972
Zn  Zn8  1  0.79340000  0.29340000  0.79340000  1.0 0.9733786972
Zn  Zn9  1  0.20660000  0.20660000  0.29340000  1.0 0.9733786972
Zn  Zn10  1  0.79340000  0.20660000  0.70660000  1.0 0.9733786972
Zn  Zn11  1  0.20660000  0.79340000  0.70660000  1.0 0.9733786972
Zn  Zn12  1  0.79340000  0.79340000  0.29340000  1.0 0.9733786972
Zn  Zn13  1  0.20660000  0.29340000  0.79340000  1.0 0.9733786972
Zn  Zn14  1  0.79340000  0.70660000  0.79340000  1.0 0.9733786972
Zn  Zn15  1  0.20660000  0.70660000  0.20660000  1.0 0.9733786972
Zn  Zn16  1  0.79340000  0.29340000  0.20660000  1.0 0.9733786972
Zn  Zn17  1  0.29340000  0.20660000  0.79340000  1.0 0.9733786972
Zn  Zn18  1  0.70660000  0.20660000  0.20660000  1.0 0.9733786972
Zn  Zn19  1  0.70660000  0.79340000  0.79340000  1.0 0.9733786972
Zn  Zn20  1  0.29340000  0.79340000  0.20660000  1.0 0.9733786972
Zn  Zn21  1  0.20660000  0.20660000  0.70660000  1.0 0.9733786972
Zn  Zn22  1  0.20660000  0.79340000  0.29340000  1.0 0.9733786972
Zn  Zn23  1  0.79340000  0.20660000  0.29340000  1.0 0.9733786972
Zn  Zn24  1  0.79340000  0.79340000  0.70660000  1.0 0.9733786972
Zn  Zn25  1  0.29340000  0.70660000  0.70660000  1.0 0.9733786972
Zn  Zn26  1  0.70660000  0.29340000  0.70660000  1.0 0.9733786972
Zn  Zn27  1  0.70660000  0.70660000  0.29340000  1.0 0.9733786972
Zn  Zn28  1  0.29340000  0.29340000  0.29340000  1.0 0.9733786972
Zn  Zn29  1  0.29340000  0.70660000  0.29340000  1.0 0.9733786972
Zn  Zn30  1  0.70660000  0.70660000  0.70660000  1.0 0.9733786972
Zn  Zn31  1  0.70660000  0.29340000  0.29340000  1.0 0.9733786972
Zn  Zn32  1  0.29340000  0.29340000  0.70660000  1.0 0.9733786972
H  H1  1  0.30490000  0.19510000  0.04480000  1.0 0.1253922477
H  H2  1  0.69510000  0.80490000  0.04480000  1.0 0.1253922477
H  H3  1  0.69510000  0.19510000  0.95520000  1.0 0.1253922477
H  H4  1  0.30490000  0.80490000  0.95520000  1.0 0.1253922477
H  H5  1  0.04480000  0.30490000  0.19510000  1.0 0.1253922477
H  H6  1  0.04480000  0.69510000  0.80490000  1.0 0.1253922477
H  H7  1  0.95520000  0.69510000  0.19510000  1.0 0.1253922477
H  H8  1  0.95520000  0.30490000  0.80490000  1.0 0.1253922477
H  H9  1  0.19510000  0.04480000  0.30490000  1.0 0.1253922477
H  H10  1  0.80490000  0.04480000  0.69510000  1.0 0.1253922477
H  H11  1  0.19510000  0.95520000  0.69510000  1.0 0.1253922477
H  H12  1  0.80490000  0.95520000  0.30490000  1.0 0.1253922477
H  H13  1  0.19510000  0.30490000  0.95520000  1.0 0.1253922477
H  H14  1  0.80490000  0.69510000  0.95520000  1.0 0.1253922477
H  H15  1  0.19510000  0.69510000  0.04480000  1.0 0.1253922477
H  H16  1  0.80490000  0.30490000  0.04480000  1.0 0.1253922477
H  H17  1  0.30490000  0.04480000  0.80490000  1.0 0.1253922477
H  H18  1  0.69510000  0.04480000  0.19510000  1.0 0.1253922477
H  H19  1  0.69510000  0.95520000  0.80490000  1.0 0.1253922477
H  H20  1  0.30490000  0.95520000  0.19510000  1.0 0.1253922477
H  H21  1  0.04480000  0.19510000  0.69510000  1.0 0.1253922477
H  H22  1  0.04480000  0.80490000  0.30490000  1.0 0.1253922477
H  H23  1  0.95520000  0.19510000  0.30490000  1.0 0.1253922477
H  H24  1  0.95520000  0.80490000  0.69510000  1.0 0.1253922477
H  H25  1  0.69510000  0.80490000  0.95520000  1.0 0.1253922477
H  H26  1  0.30490000  0.19510000  0.95520000  1.0 0.1253922477
H  H27  1  0.30490000  0.80490000  0.04480000  1.0 0.1253922477
H  H28  1  0.69510000  0.19510000  0.04480000  1.0 0.1253922477
H  H29  1  0.95520000  0.69510000  0.80490000  1.0 0.1253922477
H  H30  1  0.95520000  0.30490000  0.19510000  1.0 0.1253922477
H  H31  1  0.04480000  0.30490000  0.80490000  1.0 0.1253922477
H  H32  1  0.04480000  0.69510000  0.19510000  1.0 0.1253922477
H  H33  1  0.80490000  0.95520000  0.69510000  1.0 0.1253922477
H  H34  1  0.19510000  0.95520000  0.30490000  1.0 0.1253922477
H  H35  1  0.80490000  0.04480000  0.30490000  1.0 0.1253922477
H  H36  1  0.19510000  0.04480000  0.69510000  1.0 0.1253922477
H  H37  1  0.80490000  0.69510000  0.04480000  1.0 0.1253922477
H  H38  1  0.19510000  0.30490000  0.04480000  1.0 0.1253922477
H  H39  1  0.80490000  0.30490000  0.95520000  1.0 0.1253922477
H  H40  1  0.19510000  0.69510000  0.95520000  1.0 0.1253922477
H  H41  1  0.69510000  0.95520000  0.19510000  1.0 0.1253922477
H  H42  1  0.30490000  0.95520000  0.80490000  1.0 0.1253922477
H  H43  1  0.30490000  0.04480000  0.19510000  1.0 0.1253922477
H  H44  1  0.69510000  0.04480000  0.80490000  1.0 0.1253922477
H  H45  1  0.95520000  0.80490000  0.30490000  1.0 0.1253922477
H  H46  1  0.95520000  0.19510000  0.69510000  1.0 0.1253922477
H  H47  1  0.04480000  0.80490000  0.69510000  1.0 0.1253922477
H  H48  1  0.04480000  0.19510000  0.30490000  1.0 0.1253922477
H  H49  1  0.30490000  0.69510000  0.54480000  1.0 0.1253922477
H  H50  1  0.69510000  0.30490000  0.54480000  1.0 0.1253922477
H  H51  1  0.69510000  0.69510000  0.45520000  1.0 0.1253922477
H  H52  1  0.30490000  0.30490000  0.45520000  1.0 0.1253922477
H  H53  1  0.19510000  0.54480000  0.80490000  1.0 0.1253922477
H  H54  1  0.80490000  0.54480000  0.19510000  1.0 0.1253922477
H  H55  1  0.19510000  0.45520000  0.19510000  1.0 0.1253922477
H  H56  1  0.80490000  0.45520000  0.80490000  1.0 0.1253922477
H  H57  1  0.19510000  0.80490000  0.45520000  1.0 0.1253922477
H  H58  1  0.80490000  0.19510000  0.45520000  1.0 0.1253922477
H  H59  1  0.19510000  0.19510000  0.54480000  1.0 0.1253922477
H  H60  1  0.80490000  0.80490000  0.54480000  1.0 0.1253922477
H  H61  1  0.30490000  0.54480000  0.30490000  1.0 0.1253922477
H  H62  1  0.69510000  0.54480000  0.69510000  1.0 0.1253922477
H  H63  1  0.69510000  0.45520000  0.30490000  1.0 0.1253922477
H  H64  1  0.30490000  0.45520000  0.69510000  1.0 0.1253922477
H  H65  1  0.69510000  0.30490000  0.45520000  1.0 0.1253922477
H  H66  1  0.30490000  0.69510000  0.45520000  1.0 0.1253922477
H  H67  1  0.30490000  0.30490000  0.54480000  1.0 0.1253922477
H  H68  1  0.69510000  0.69510000  0.54480000  1.0 0.1253922477
H  H69  1  0.80490000  0.45520000  0.19510000  1.0 0.1253922477
H  H70  1  0.19510000  0.45520000  0.80490000  1.0 0.1253922477
H  H71  1  0.80490000  0.54480000  0.80490000  1.0 0.1253922477
H  H72  1  0.19510000  0.54480000  0.19510000  1.0 0.1253922477
H  H73  1  0.80490000  0.19510000  0.54480000  1.0 0.1253922477
H  H74  1  0.19510000  0.80490000  0.54480000  1.0 0.1253922477
H  H75  1  0.80490000  0.80490000  0.45520000  1.0 0.1253922477
H  H76  1  0.19510000  0.19510000  0.45520000  1.0 0.1253922477
H  H77  1  0.69510000  0.45520000  0.69510000  1.0 0.1253922477
H  H78  1  0.30490000  0.45520000  0.30490000  1.0 0.1253922477
H  H79  1  0.30490000  0.54480000  0.69510000  1.0 0.1253922477
H  H80  1  0.69510000  0.54480000  0.30490000  1.0 0.1253922477
H  H81  1  0.54480000  0.30490000  0.69510000  1.0 0.1253922477
H  H82  1  0.54480000  0.69510000  0.30490000  1.0 0.1253922477
H  H83  1  0.45520000  0.69510000  0.69510000  1.0 0.1253922477
H  H84  1  0.45520000  0.30490000  0.30490000  1.0 0.1253922477
H  H85  1  0.54480000  0.19510000  0.19510000  1.0 0.1253922477
H  H86  1  0.54480000  0.80490000  0.80490000  1.0 0.1253922477
H  H87  1  0.45520000  0.19510000  0.80490000  1.0 0.1253922477
H  H88  1  0.45520000  0.80490000  0.19510000  1.0 0.1253922477
H  H89  1  0.45520000  0.69510000  0.30490000  1.0 0.1253922477
H  H90  1  0.45520000  0.30490000  0.69510000  1.0 0.1253922477
H  H91  1  0.54480000  0.30490000  0.30490000  1.0 0.1253922477
H  H92  1  0.54480000  0.69510000  0.69510000  1.0 0.1253922477
H  H93  1  0.45520000  0.80490000  0.80490000  1.0 0.1253922477
H  H94  1  0.45520000  0.19510000  0.19510000  1.0 0.1253922477
H  H95  1  0.54480000  0.80490000  0.19510000  1.0 0.1253922477
H  H96  1  0.54480000  0.19510000  0.80490000  1.0 0.1253922477
C  C1  1  0.25000000  0.25000000  0.11130000  1.0 0.5991629565
C  C2  1  0.75000000  0.75000000  0.11130000  1.0 0.5991629565
C  C3  1  0.75000000  0.25000000  0.88870000  1.0 0.5991629565
C  C4  1  0.25000000  0.75000000  0.88870000  1.0 0.5991629565
C  C5  1  0.11130000  0.25000000  0.25000000  1.0 0.5991629565
C  C6  1  0.11130000  0.75000000  0.75000000  1.0 0.5991629565
C  C7  1  0.88870000  0.75000000  0.25000000  1.0 0.5991629565
C  C8  1  0.88870000  0.25000000  0.75000000  1.0 0.5991629565
C  C9  1  0.25000000  0.11130000  0.25000000  1.0 0.5991629565
C  C10  1  0.75000000  0.11130000  0.75000000  1.0 0.5991629565
C  C11  1  0.25000000  0.88870000  0.75000000  1.0 0.5991629565
C  C12  1  0.75000000  0.88870000  0.25000000  1.0 0.5991629565
C  C13  1  0.25000000  0.25000000  0.88870000  1.0 0.5991629565
C  C14  1  0.75000000  0.75000000  0.88870000  1.0 0.5991629565
C  C15  1  0.25000000  0.75000000  0.11130000  1.0 0.5991629565
C  C16  1  0.75000000  0.25000000  0.11130000  1.0 0.5991629565
C  C17  1  0.25000000  0.11130000  0.75000000  1.0 0.5991629565
C  C18  1  0.75000000  0.11130000  0.25000000  1.0 0.5991629565
C  C19  1  0.75000000  0.88870000  0.75000000  1.0 0.5991629565
C  C20  1  0.25000000  0.88870000  0.25000000  1.0 0.5991629565
C  C21  1  0.11130000  0.25000000  0.75000000  1.0 0.5991629565
C  C22  1  0.11130000  0.75000000  0.25000000  1.0 0.5991629565
C  C23  1  0.88870000  0.25000000  0.25000000  1.0 0.5991629565
C  C24  1  0.88870000  0.75000000  0.75000000  1.0 0.5991629565
C  C25  1  0.25000000  0.75000000  0.61130000  1.0 0.5991629565
C  C26  1  0.75000000  0.25000000  0.61130000  1.0 0.5991629565
C  C27  1  0.75000000  0.75000000  0.38870000  1.0 0.5991629565
C  C28  1  0.25000000  0.25000000  0.38870000  1.0 0.5991629565
C  C29  1  0.25000000  0.61130000  0.75000000  1.0 0.5991629565
C  C30  1  0.75000000  0.61130000  0.25000000  1.0 0.5991629565
C  C31  1  0.25000000  0.38870000  0.25000000  1.0 0.5991629565
C  C32  1  0.75000000  0.38870000  0.75000000  1.0 0.5991629565
C  C33  1  0.25000000  0.75000000  0.38870000  1.0 0.5991629565
C  C34  1  0.75000000  0.25000000  0.38870000  1.0 0.5991629565
C  C35  1  0.25000000  0.25000000  0.61130000  1.0 0.5991629565
C  C36  1  0.75000000  0.75000000  0.61130000  1.0 0.5991629565
C  C37  1  0.25000000  0.61130000  0.25000000  1.0 0.5991629565
C  C38  1  0.75000000  0.61130000  0.75000000  1.0 0.5991629565
C  C39  1  0.75000000  0.38870000  0.25000000  1.0 0.5991629565
C  C40  1  0.25000000  0.38870000  0.75000000  1.0 0.5991629565
C  C41  1  0.61130000  0.25000000  0.75000000  1.0 0.5991629565
C  C42  1  0.61130000  0.75000000  0.25000000  1.0 0.5991629565
C  C43  1  0.38870000  0.75000000  0.75000000  1.0 0.5991629565
C  C44  1  0.38870000  0.25000000  0.25000000  1.0 0.5991629565
C  C45  1  0.61130000  0.25000000  0.25000000  1.0 0.5991629565
C  C46  1  0.61130000  0.75000000  0.75000000  1.0 0.5991629565
C  C47  1  0.38870000  0.25000000  0.75000000  1.0 0.5991629565
C  C48  1  0.38870000  0.75000000  0.25000000  1.0 0.5991629565
C  C49  1  0.25000000  0.25000000  0.05380000  1.0 -0.0359318304
C  C50  1  0.75000000  0.75000000  0.05380000  1.0 -0.0359318304
C  C51  1  0.75000000  0.25000000  0.94620000  1.0 -0.0359318304
C  C52  1  0.25000000  0.75000000  0.94620000  1.0 -0.0359318304
C  C53  1  0.05380000  0.25000000  0.25000000  1.0 -0.0359318304
C  C54  1  0.05380000  0.75000000  0.75000000  1.0 -0.0359318304
C  C55  1  0.94620000  0.75000000  0.25000000  1.0 -0.0359318304
C  C56  1  0.94620000  0.25000000  0.75000000  1.0 -0.0359318304
C  C57  1  0.25000000  0.05380000  0.25000000  1.0 -0.0359318304
C  C58  1  0.75000000  0.05380000  0.75000000  1.0 -0.0359318304
C  C59  1  0.25000000  0.94620000  0.75000000  1.0 -0.0359318304
C  C60  1  0.75000000  0.94620000  0.25000000  1.0 -0.0359318304
C  C61  1  0.25000000  0.25000000  0.94620000  1.0 -0.0359318304
C  C62  1  0.75000000  0.75000000  0.94620000  1.0 -0.0359318304
C  C63  1  0.25000000  0.75000000  0.05380000  1.0 -0.0359318304
C  C64  1  0.75000000  0.25000000  0.05380000  1.0 -0.0359318304
C  C65  1  0.25000000  0.05380000  0.75000000  1.0 -0.0359318304
C  C66  1  0.75000000  0.05380000  0.25000000  1.0 -0.0359318304
C  C67  1  0.75000000  0.94620000  0.75000000  1.0 -0.0359318304
C  C68  1  0.25000000  0.94620000  0.25000000  1.0 -0.0359318304
C  C69  1  0.05380000  0.25000000  0.75000000  1.0 -0.0359318304
C  C70  1  0.05380000  0.75000000  0.25000000  1.0 -0.0359318304
C  C71  1  0.94620000  0.25000000  0.25000000  1.0 -0.0359318304
C  C72  1  0.94620000  0.75000000  0.75000000  1.0 -0.0359318304
C  C73  1  0.25000000  0.75000000  0.55380000  1.0 -0.0359318304
C  C74  1  0.75000000  0.25000000  0.55380000  1.0 -0.0359318304
C  C75  1  0.75000000  0.75000000  0.44620000  1.0 -0.0359318304
C  C76  1  0.25000000  0.25000000  0.44620000  1.0 -0.0359318304
C  C77  1  0.25000000  0.55380000  0.75000000  1.0 -0.0359318304
C  C78  1  0.75000000  0.55380000  0.25000000  1.0 -0.0359318304
C  C79  1  0.25000000  0.44620000  0.25000000  1.0 -0.0359318304
C  C80  1  0.75000000  0.44620000  0.75000000  1.0 -0.0359318304
C  C81  1  0.25000000  0.75000000  0.44620000  1.0 -0.0359318304
C  C82  1  0.75000000  0.25000000  0.44620000  1.0 -0.0359318304
C  C83  1  0.25000000  0.25000000  0.55380000  1.0 -0.0359318304
C  C84  1  0.75000000  0.75000000  0.55380000  1.0 -0.0359318304
C  C85  1  0.25000000  0.55380000  0.25000000  1.0 -0.0359318304
C  C86  1  0.75000000  0.55380000  0.75000000  1.0 -0.0359318304
C  C87  1  0.75000000  0.44620000  0.25000000  1.0 -0.0359318304
C  C88  1  0.25000000  0.44620000  0.75000000  1.0 -0.0359318304
C  C89  1  0.55380000  0.25000000  0.75000000  1.0 -0.0359318304
C  C90  1  0.55380000  0.75000000  0.25000000  1.0 -0.0359318304
C  C91  1  0.44620000  0.75000000  0.75000000  1.0 -0.0359318304
C  C92  1  0.44620000  0.25000000  0.25000000  1.0 -0.0359318304
C  C93  1  0.55380000  0.25000000  0.25000000  1.0 -0.0359318304
C  C94  1  0.55380000  0.75000000  0.75000000  1.0 -0.0359318304
C  C95  1  0.44620000  0.25000000  0.75000000  1.0 -0.0359318304
C  C96  1  0.44620000  0.75000000  0.25000000  1.0 -0.0359318304
C  C97  1  0.28290000  0.21710000  0.02690000  1.0 -0.0866662549
C  C98  1  0.71710000  0.78290000  0.02690000  1.0 -0.0866662549
C  C99  1  0.71710000  0.21710000  0.97310000  1.0 -0.0866662549
C  C100  1  0.28290000  0.78290000  0.97310000  1.0 -0.0866662549
C  C101  1  0.02690000  0.28290000  0.21710000  1.0 -0.0866662549
C  C102  1  0.02690000  0.71710000  0.78290000  1.0 -0.0866662549
C  C103  1  0.97310000  0.71710000  0.21710000  1.0 -0.0866662549
C  C104  1  0.97310000  0.28290000  0.78290000  1.0 -0.0866662549
C  C105  1  0.21710000  0.02690000  0.28290000  1.0 -0.0866662549
C  C106  1  0.78290000  0.02690000  0.71710000  1.0 -0.0866662549
C  C107  1  0.21710000  0.97310000  0.71710000  1.0 -0.0866662549
C  C108  1  0.78290000  0.97310000  0.28290000  1.0 -0.0866662549
C  C109  1  0.21710000  0.28290000  0.97310000  1.0 -0.0866662549
C  C110  1  0.78290000  0.71710000  0.97310000  1.0 -0.0866662549
C  C111  1  0.21710000  0.71710000  0.02690000  1.0 -0.0866662549
C  C112  1  0.78290000  0.28290000  0.02690000  1.0 -0.0866662549
C  C113  1  0.28290000  0.02690000  0.78290000  1.0 -0.0866662549
C  C114  1  0.71710000  0.02690000  0.21710000  1.0 -0.0866662549
C  C115  1  0.71710000  0.97310000  0.78290000  1.0 -0.0866662549
C  C116  1  0.28290000  0.97310000  0.21710000  1.0 -0.0866662549
C  C117  1  0.02690000  0.21710000  0.71710000  1.0 -0.0866662549
C  C118  1  0.02690000  0.78290000  0.28290000  1.0 -0.0866662549
C  C119  1  0.97310000  0.21710000  0.28290000  1.0 -0.0866662549
C  C120  1  0.97310000  0.78290000  0.71710000  1.0 -0.0866662549
C  C121  1  0.71710000  0.78290000  0.97310000  1.0 -0.0866662549
C  C122  1  0.28290000  0.21710000  0.97310000  1.0 -0.0866662549
C  C123  1  0.28290000  0.78290000  0.02690000  1.0 -0.0866662549
C  C124  1  0.71710000  0.21710000  0.02690000  1.0 -0.0866662549
C  C125  1  0.97310000  0.71710000  0.78290000  1.0 -0.0866662549
C  C126  1  0.97310000  0.28290000  0.21710000  1.0 -0.0866662549
C  C127  1  0.02690000  0.28290000  0.78290000  1.0 -0.0866662549
C  C128  1  0.02690000  0.71710000  0.21710000  1.0 -0.0866662549
C  C129  1  0.78290000  0.97310000  0.71710000  1.0 -0.0866662549
C  C130  1  0.21710000  0.97310000  0.28290000  1.0 -0.0866662549
C  C131  1  0.78290000  0.02690000  0.28290000  1.0 -0.0866662549
C  C132  1  0.21710000  0.02690000  0.71710000  1.0 -0.0866662549
C  C133  1  0.78290000  0.71710000  0.02690000  1.0 -0.0866662549
C  C134  1  0.21710000  0.28290000  0.02690000  1.0 -0.0866662549
C  C135  1  0.78290000  0.28290000  0.97310000  1.0 -0.0866662549
C  C136  1  0.21710000  0.71710000  0.97310000  1.0 -0.0866662549
C  C137  1  0.71710000  0.97310000  0.21710000  1.0 -0.0866662549
C  C138  1  0.28290000  0.97310000  0.78290000  1.0 -0.0866662549
C  C139  1  0.28290000  0.02690000  0.21710000  1.0 -0.0866662549
C  C140  1  0.71710000  0.02690000  0.78290000  1.0 -0.0866662549
C  C141  1  0.97310000  0.78290000  0.28290000  1.0 -0.0866662549
C  C142  1  0.97310000  0.21710000  0.71710000  1.0 -0.0866662549
C  C143  1  0.02690000  0.78290000  0.71710000  1.0 -0.0866662549
C  C144  1  0.02690000  0.21710000  0.28290000  1.0 -0.0866662549
C  C145  1  0.28290000  0.71710000  0.52690000  1.0 -0.0866662549
C  C146  1  0.71710000  0.28290000  0.52690000  1.0 -0.0866662549
C  C147  1  0.71710000  0.71710000  0.47310000  1.0 -0.0866662549
C  C148  1  0.28290000  0.28290000  0.47310000  1.0 -0.0866662549
C  C149  1  0.21710000  0.52690000  0.78290000  1.0 -0.0866662549
C  C150  1  0.78290000  0.52690000  0.21710000  1.0 -0.0866662549
C  C151  1  0.21710000  0.47310000  0.21710000  1.0 -0.0866662549
C  C152  1  0.78290000  0.47310000  0.78290000  1.0 -0.0866662549
C  C153  1  0.21710000  0.78290000  0.47310000  1.0 -0.0866662549
C  C154  1  0.78290000  0.21710000  0.47310000  1.0 -0.0866662549
C  C155  1  0.21710000  0.21710000  0.52690000  1.0 -0.0866662549
C  C156  1  0.78290000  0.78290000  0.52690000  1.0 -0.0866662549
C  C157  1  0.28290000  0.52690000  0.28290000  1.0 -0.0866662549
C  C158  1  0.71710000  0.52690000  0.71710000  1.0 -0.0866662549
C  C159  1  0.71710000  0.47310000  0.28290000  1.0 -0.0866662549
C  C160  1  0.28290000  0.47310000  0.71710000  1.0 -0.0866662549
C  C161  1  0.71710000  0.28290000  0.47310000  1.0 -0.0866662549
C  C162  1  0.28290000  0.71710000  0.47310000  1.0 -0.0866662549
C  C163  1  0.28290000  0.28290000  0.52690000  1.0 -0.0866662549
C  C164  1  0.71710000  0.71710000  0.52690000  1.0 -0.0866662549
C  C165  1  0.78290000  0.47310000  0.21710000  1.0 -0.0866662549
C  C166  1  0.21710000  0.47310000  0.78290000  1.0 -0.0866662549
C  C167  1  0.78290000  0.52690000  0.78290000  1.0 -0.0866662549
C  C168  1  0.21710000  0.52690000  0.21710000  1.0 -0.0866662549
C  C169  1  0.78290000  0.21710000  0.52690000  1.0 -0.0866662549
C  C170  1  0.21710000  0.78290000  0.52690000  1.0 -0.0866662549
C  C171  1  0.78290000  0.78290000  0.47310000  1.0 -0.0866662549
C  C172  1  0.21710000  0.21710000  0.47310000  1.0 -0.0866662549
C  C173  1  0.71710000  0.47310000  0.71710000  1.0 -0.0866662549
C  C174  1  0.28290000  0.47310000  0.28290000  1.0 -0.0866662549
C  C175  1  0.28290000  0.52690000  0.71710000  1.0 -0.0866662549
C  C176  1  0.71710000  0.52690000  0.28290000  1.0 -0.0866662549
C  C177  1  0.52690000  0.28290000  0.71710000  1.0 -0.0866662549
C  C178  1  0.52690000  0.71710000  0.28290000  1.0 -0.0866662549
C  C179  1  0.47310000  0.71710000  0.71710000  1.0 -0.0866662549
C  C180  1  0.47310000  0.28290000  0.28290000  1.0 -0.0866662549
C  C181  1  0.52690000  0.21710000  0.21710000  1.0 -0.0866662549
C  C182  1  0.52690000  0.78290000  0.78290000  1.0 -0.0866662549
C  C183  1  0.47310000  0.21710000  0.78290000  1.0 -0.0866662549
C  C184  1  0.47310000  0.78290000  0.21710000  1.0 -0.0866662549
C  C185  1  0.47310000  0.71710000  0.28290000  1.0 -0.0866662549
C  C186  1  0.47310000  0.28290000  0.71710000  1.0 -0.0866662549
C  C187  1  0.52690000  0.28290000  0.28290000  1.0 -0.0866662549
C  C188  1  0.52690000  0.71710000  0.71710000  1.0 -0.0866662549
C  C189  1  0.47310000  0.78290000  0.78290000  1.0 -0.0866662549
C  C190  1  0.47310000  0.21710000  0.21710000  1.0 -0.0866662549
C  C191  1  0.52690000  0.78290000  0.21710000  1.0 -0.0866662549
C  C192  1  0.52690000  0.21710000  0.78290000  1.0 -0.0866662549
O  O1  1  0.25000000  0.25000000  0.25000000  1.0 -1.05399015
O  O2  1  0.75000000  0.75000000  0.25000000  1.0 -1.05399015
O  O3  1  0.75000000  0.25000000  0.75000000  1.0 -1.05399015
O  O4  1  0.25000000  0.75000000  0.75000000  1.0 -1.05399015
O  O5  1  0.25000000  0.25000000  0.75000000  1.0 -1.05399015
O  O6  1  0.75000000  0.75000000  0.75000000  1.0 -1.05399015
O  O7  1  0.25000000  0.75000000  0.25000000  1.0 -1.05399015
O  O8  1  0.75000000  0.25000000  0.25000000  1.0 -1.05399015
O  O9  1  0.28190000  0.21810000  0.13400000  1.0 -0.5569686091
O  O10  1  0.71810000  0.78190000  0.13400000  1.0 -0.5569686091
O  O11  1  0.71810000  0.21810000  0.86600000  1.0 -0.5569686091
O  O12  1  0.28190000  0.78190000  0.86600000  1.0 -0.5569686091
O  O13  1  0.13400000  0.28190000  0.21810000  1.0 -0.5569686091
O  O14  1  0.13400000  0.71810000  0.78190000  1.0 -0.5569686091
O  O15  1  0.86600000  0.71810000  0.21810000  1.0 -0.5569686091
O  O16  1  0.86600000  0.28190000  0.78190000  1.0 -0.5569686091
O  O17  1  0.21810000  0.13400000  0.28190000  1.0 -0.5569686091
O  O18  1  0.78190000  0.13400000  0.71810000  1.0 -0.5569686091
O  O19  1  0.21810000  0.86600000  0.71810000  1.0 -0.5569686091
O  O20  1  0.78190000  0.86600000  0.28190000  1.0 -0.5569686091
O  O21  1  0.21810000  0.28190000  0.86600000  1.0 -0.5569686091
O  O22  1  0.78190000  0.71810000  0.86600000  1.0 -0.5569686091
O  O23  1  0.21810000  0.71810000  0.13400000  1.0 -0.5569686091
O  O24  1  0.78190000  0.28190000  0.13400000  1.0 -0.5569686091
O  O25  1  0.28190000  0.13400000  0.78190000  1.0 -0.5569686091
O  O26  1  0.71810000  0.13400000  0.21810000  1.0 -0.5569686091
O  O27  1  0.71810000  0.86600000  0.78190000  1.0 -0.5569686091
O  O28  1  0.28190000  0.86600000  0.21810000  1.0 -0.5569686091
O  O29  1  0.13400000  0.21810000  0.71810000  1.0 -0.5569686091
O  O30  1  0.13400000  0.78190000  0.28190000  1.0 -0.5569686091
O  O31  1  0.86600000  0.21810000  0.28190000  1.0 -0.5569686091
O  O32  1  0.86600000  0.78190000  0.71810000  1.0 -0.5569686091
O  O33  1  0.71810000  0.78190000  0.86600000  1.0 -0.5569686091
O  O34  1  0.28190000  0.21810000  0.86600000  1.0 -0.5569686091
O  O35  1  0.28190000  0.78190000  0.13400000  1.0 -0.5569686091
O  O36  1  0.71810000  0.21810000  0.13400000  1.0 -0.5569686091
O  O37  1  0.86600000  0.71810000  0.78190000  1.0 -0.5569686091
O  O38  1  0.86600000  0.28190000  0.21810000  1.0 -0.5569686091
O  O39  1  0.13400000  0.28190000  0.78190000  1.0 -0.5569686091
O  O40  1  0.13400000  0.71810000  0.21810000  1.0 -0.5569686091
O  O41  1  0.78190000  0.86600000  0.71810000  1.0 -0.5569686091
O  O42  1  0.21810000  0.86600000  0.28190000  1.0 -0.5569686091
O  O43  1  0.78190000  0.13400000  0.28190000  1.0 -0.5569686091
O  O44  1  0.21810000  0.13400000  0.71810000  1.0 -0.5569686091
O  O45  1  0.78190000  0.71810000  0.13400000  1.0 -0.5569686091
O  O46  1  0.21810000  0.28190000  0.13400000  1.0 -0.5569686091
O  O47  1  0.78190000  0.28190000  0.86600000  1.0 -0.5569686091
O  O48  1  0.21810000  0.71810000  0.86600000  1.0 -0.5569686091
O  O49  1  0.71810000  0.86600000  0.21810000  1.0 -0.5569686091
O  O50  1  0.28190000  0.86600000  0.78190000  1.0 -0.5569686091
O  O51  1  0.28190000  0.13400000  0.21810000  1.0 -0.5569686091
O  O52  1  0.71810000  0.13400000  0.78190000  1.0 -0.5569686091
O  O53  1  0.86600000  0.78190000  0.28190000  1.0 -0.5569686091
O  O54  1  0.86600000  0.21810000  0.71810000  1.0 -0.5569686091
O  O55  1  0.13400000  0.78190000  0.71810000  1.0 -0.5569686091
O  O56  1  0.13400000  0.21810000  0.28190000  1.0 -0.5569686091
O  O57  1  0.28190000  0.71810000  0.63400000  1.0 -0.5569686091
O  O58  1  0.71810000  0.28190000  0.63400000  1.0 -0.5569686091
O  O59  1  0.71810000  0.71810000  0.36600000  1.0 -0.5569686091
O  O60  1  0.28190000  0.28190000  0.36600000  1.0 -0.5569686091
O  O61  1  0.21810000  0.63400000  0.78190000  1.0 -0.5569686091
O  O62  1  0.78190000  0.63400000  0.21810000  1.0 -0.5569686091
O  O63  1  0.21810000  0.36600000  0.21810000  1.0 -0.5569686091
O  O64  1  0.78190000  0.36600000  0.78190000  1.0 -0.5569686091
O  O65  1  0.21810000  0.78190000  0.36600000  1.0 -0.5569686091
O  O66  1  0.78190000  0.21810000  0.36600000  1.0 -0.5569686091
O  O67  1  0.21810000  0.21810000  0.63400000  1.0 -0.5569686091
O  O68  1  0.78190000  0.78190000  0.63400000  1.0 -0.5569686091
O  O69  1  0.28190000  0.63400000  0.28190000  1.0 -0.5569686091
O  O70  1  0.71810000  0.63400000  0.71810000  1.0 -0.5569686091
O  O71  1  0.71810000  0.36600000  0.28190000  1.0 -0.5569686091
O  O72  1  0.28190000  0.36600000  0.71810000  1.0 -0.5569686091
O  O73  1  0.71810000  0.28190000  0.36600000  1.0 -0.5569686091
O  O74  1  0.28190000  0.71810000  0.36600000  1.0 -0.5569686091
O  O75  1  0.28190000  0.28190000  0.63400000  1.0 -0.5569686091
O  O76  1  0.71810000  0.71810000  0.63400000  1.0 -0.5569686091
O  O77  1  0.78190000  0.36600000  0.21810000  1.0 -0.5569686091
O  O78  1  0.21810000  0.36600000  0.78190000  1.0 -0.5569686091
O  O79  1  0.78190000  0.63400000  0.78190000  1.0 -0.5569686091
O  O80  1  0.21810000  0.63400000  0.21810000  1.0 -0.5569686091
O  O81  1  0.78190000  0.21810000  0.63400000  1.0 -0.5569686091
O  O82  1  0.21810000  0.78190000  0.63400000  1.0 -0.5569686091
O  O83  1  0.78190000  0.78190000  0.36600000  1.0 -0.5569686091
O  O84  1  0.21810000  0.21810000  0.36600000  1.0 -0.5569686091
O  O85  1  0.71810000  0.36600000  0.71810000  1.0 -0.5569686091
O  O86  1  0.28190000  0.36600000  0.28190000  1.0 -0.5569686091
O  O87  1  0.28190000  0.63400000  0.71810000  1.0 -0.5569686091
O  O88  1  0.71810000  0.63400000  0.28190000  1.0 -0.5569686091
O  O89  1  0.63400000  0.28190000  0.71810000  1.0 -0.5569686091
O  O90  1  0.63400000  0.71810000  0.28190000  1.0 -0.5569686091
O  O91  1  0.36600000  0.71810000  0.71810000  1.0 -0.5569686091
O  O92  1  0.36600000  0.28190000  0.28190000  1.0 -0.5569686091
O  O93  1  0.63400000  0.21810000  0.21810000  1.0 -0.5569686091
O  O94  1  0.63400000  0.78190000  0.78190000  1.0 -0.5569686091
O  O95  1  0.36600000  0.21810000  0.78190000  1.0 -0.5569686091
O  O96  1  0.36600000  0.78190000  0.21810000  1.0 -0.5569686091
O  O97  1  0.36600000  0.71810000  0.28190000  1.0 -0.5569686091
O  O98  1  0.36600000  0.28190000  0.71810000  1.0 -0.5569686091
O  O99  1  0.63400000  0.28190000  0.28190000  1.0 -0.5569686091
O  O100  1  0.63400000  0.71810000  0.71810000  1.0 -0.5569686091
O  O101  1  0.36600000  0.78190000  0.78190000  1.0 -0.5569686091
O  O102  1  0.36600000  0.21810000  0.21810000  1.0 -0.5569686091
O  O103  1  0.63400000  0.78190000  0.21810000  1.0 -0.5569686091
O  O104  1  0.63400000  0.21810000  0.78190000  1.0 -0.5569686091
>>>>>>> 04b52f8f16bcd5c63e8428b2616e7fe32198d02e
