# DDEC6 charges by PACMAN v1.3 (https://github.com/mtap-research/PACMAN-charge/)
data_UiO-66_pacman
_symmetry_space_group_name_H-M   'P 1'
_cell_length_a   20.70040000
_cell_length_b   20.70040000
_cell_length_c   20.70040000
_cell_angle_alpha   90.00000000
_cell_angle_beta   90.00000000
_cell_angle_gamma   90.00000000
_symmetry_Int_Tables_number   1
_chemical_formula_structural   ZrH4C8O5
_chemical_formula_sum   'Zr24 H96 C192 O120'
_cell_volume   8870.25719794
_cell_formula_units_Z   24
loop_
 _symmetry_equiv_pos_site_id
 _symmetry_equiv_pos_as_xyz
  1  'x, y, z'
loop_
 _atom_site_type_symbol
 _atom_site_label
 _atom_site_symmetry_multiplicity
 _atom_site_fract_x
 _atom_site_fract_y
 _atom_site_fract_z
 _atom_site_occupancy
 _atom_site_charge
<<<<<<< HEAD
Zr  Zr1  1  0.11989000  0.00000000  0.00000000  1.0 2.3101098428
Zr  Zr2  1  0.11989000  0.50000000  0.50000000  1.0 2.3101098428
Zr  Zr3  1  0.61989000  0.00000000  0.50000000  1.0 2.3101098428
Zr  Zr4  1  0.61989000  0.50000000  0.00000000  1.0 2.319394955
Zr  Zr5  1  0.88011000  0.00000000  0.00000000  1.0 2.3101098428
Zr  Zr6  1  0.88011000  0.50000000  0.50000000  1.0 2.3101098428
Zr  Zr7  1  0.38011000  0.00000000  0.50000000  1.0 2.3101098428
Zr  Zr8  1  0.38011000  0.50000000  0.00000000  1.0 2.319394955
Zr  Zr9  1  0.00000000  0.11989000  0.00000000  1.0 2.3101098428
Zr  Zr10  1  0.00000000  0.61989000  0.50000000  1.0 2.1968525737
Zr  Zr11  1  0.50000000  0.11989000  0.50000000  1.0 2.3101098428
Zr  Zr12  1  0.50000000  0.61989000  0.00000000  1.0 2.319394955
Zr  Zr13  1  0.00000000  0.88011000  0.00000000  1.0 2.3101098428
Zr  Zr14  1  0.00000000  0.38011000  0.50000000  1.0 2.3731817891
Zr  Zr15  1  0.50000000  0.88011000  0.50000000  1.0 2.3101098428
Zr  Zr16  1  0.50000000  0.38011000  0.00000000  1.0 2.319394955
Zr  Zr17  1  0.00000000  0.00000000  0.11989000  1.0 2.3731817891
Zr  Zr18  1  0.00000000  0.50000000  0.61989000  1.0 2.3101098428
Zr  Zr19  1  0.50000000  0.00000000  0.61989000  1.0 2.1968525737
Zr  Zr20  1  0.50000000  0.50000000  0.11989000  1.0 2.319394955
Zr  Zr21  1  0.00000000  0.00000000  0.88011000  1.0 2.1968525737
Zr  Zr22  1  0.00000000  0.50000000  0.38011000  1.0 2.3101098428
Zr  Zr23  1  0.50000000  0.00000000  0.38011000  1.0 2.3731817891
Zr  Zr24  1  0.50000000  0.50000000  0.88011000  1.0 2.319394955
H  H1  1  0.27872000  0.00000000  0.13048000  1.0 0.098986639
H  H2  1  0.27872000  0.50000000  0.63048000  1.0 0.098986639
H  H3  1  0.77872000  0.00000000  0.63048000  1.0 0.098986639
H  H4  1  0.77872000  0.50000000  0.13048000  1.0 0.098986639
H  H5  1  0.72128000  0.00000000  0.13048000  1.0 0.098986639
H  H6  1  0.72128000  0.50000000  0.63048000  1.0 0.098986639
H  H7  1  0.22128000  0.00000000  0.63048000  1.0 0.098986639
H  H8  1  0.22128000  0.50000000  0.13048000  1.0 0.098986639
H  H9  1  0.72128000  0.00000000  0.86952000  1.0 0.098986639
H  H10  1  0.72128000  0.50000000  0.36952000  1.0 0.098986639
H  H11  1  0.22128000  0.00000000  0.36952000  1.0 0.098986639
H  H12  1  0.22128000  0.50000000  0.86952000  1.0 0.098986639
H  H13  1  0.27872000  0.00000000  0.86952000  1.0 0.098986639
H  H14  1  0.27872000  0.50000000  0.36952000  1.0 0.098986639
H  H15  1  0.77872000  0.00000000  0.36952000  1.0 0.098986639
H  H16  1  0.77872000  0.50000000  0.86952000  1.0 0.098986639
H  H17  1  0.13048000  0.27872000  0.00000000  1.0 0.098986639
H  H18  1  0.13048000  0.77872000  0.50000000  1.0 0.098986639
H  H19  1  0.63048000  0.27872000  0.50000000  1.0 0.098986639
H  H20  1  0.63048000  0.77872000  0.00000000  1.0 0.098986639
H  H21  1  0.13048000  0.72128000  0.00000000  1.0 0.098986639
H  H22  1  0.13048000  0.22128000  0.50000000  1.0 0.098986639
H  H23  1  0.63048000  0.72128000  0.50000000  1.0 0.098986639
H  H24  1  0.63048000  0.22128000  0.00000000  1.0 0.098986639
H  H25  1  0.86952000  0.72128000  0.00000000  1.0 0.098986639
H  H26  1  0.86952000  0.22128000  0.50000000  1.0 0.098986639
H  H27  1  0.36952000  0.72128000  0.50000000  1.0 0.098986639
H  H28  1  0.36952000  0.22128000  0.00000000  1.0 0.098986639
H  H29  1  0.86952000  0.27872000  0.00000000  1.0 0.098986639
H  H30  1  0.86952000  0.77872000  0.50000000  1.0 0.098986639
H  H31  1  0.36952000  0.27872000  0.50000000  1.0 0.098986639
H  H32  1  0.36952000  0.77872000  0.00000000  1.0 0.098986639
H  H33  1  0.00000000  0.13048000  0.27872000  1.0 0.098986639
H  H34  1  0.00000000  0.63048000  0.77872000  1.0 0.098986639
H  H35  1  0.50000000  0.13048000  0.77872000  1.0 0.098986639
H  H36  1  0.50000000  0.63048000  0.27872000  1.0 0.098986639
H  H37  1  0.00000000  0.13048000  0.72128000  1.0 0.098986639
H  H38  1  0.00000000  0.63048000  0.22128000  1.0 0.098986639
H  H39  1  0.50000000  0.13048000  0.22128000  1.0 0.098986639
H  H40  1  0.50000000  0.63048000  0.72128000  1.0 0.098986639
H  H41  1  0.00000000  0.86952000  0.72128000  1.0 0.098986639
H  H42  1  0.00000000  0.36952000  0.22128000  1.0 0.098986639
H  H43  1  0.50000000  0.86952000  0.22128000  1.0 0.098986639
H  H44  1  0.50000000  0.36952000  0.72128000  1.0 0.098986639
H  H45  1  0.00000000  0.86952000  0.27872000  1.0 0.098986639
H  H46  1  0.00000000  0.36952000  0.77872000  1.0 0.098986639
H  H47  1  0.50000000  0.86952000  0.77872000  1.0 0.098986639
H  H48  1  0.50000000  0.36952000  0.27872000  1.0 0.098986639
H  H49  1  0.00000000  0.27872000  0.86952000  1.0 0.098986639
H  H50  1  0.00000000  0.77872000  0.36952000  1.0 0.098986639
H  H51  1  0.50000000  0.27872000  0.36952000  1.0 0.098986639
H  H52  1  0.50000000  0.77872000  0.86952000  1.0 0.098986639
H  H53  1  0.00000000  0.72128000  0.86952000  1.0 0.098986639
H  H54  1  0.00000000  0.22128000  0.36952000  1.0 0.098986639
H  H55  1  0.50000000  0.72128000  0.36952000  1.0 0.098986639
H  H56  1  0.50000000  0.22128000  0.86952000  1.0 0.098986639
H  H57  1  0.00000000  0.72128000  0.13048000  1.0 0.098986639
H  H58  1  0.00000000  0.22128000  0.63048000  1.0 0.098986639
H  H59  1  0.50000000  0.72128000  0.63048000  1.0 0.098986639
H  H60  1  0.50000000  0.22128000  0.13048000  1.0 0.098986639
H  H61  1  0.00000000  0.27872000  0.13048000  1.0 0.098986639
H  H62  1  0.00000000  0.77872000  0.63048000  1.0 0.098986639
H  H63  1  0.50000000  0.27872000  0.63048000  1.0 0.098986639
H  H64  1  0.50000000  0.77872000  0.13048000  1.0 0.098986639
H  H65  1  0.27872000  0.13048000  0.00000000  1.0 0.098986639
H  H66  1  0.27872000  0.63048000  0.50000000  1.0 0.098986639
H  H67  1  0.77872000  0.13048000  0.50000000  1.0 0.098986639
H  H68  1  0.77872000  0.63048000  0.00000000  1.0 0.098986639
H  H69  1  0.72128000  0.13048000  0.00000000  1.0 0.098986639
H  H70  1  0.72128000  0.63048000  0.50000000  1.0 0.098986639
H  H71  1  0.22128000  0.13048000  0.50000000  1.0 0.098986639
H  H72  1  0.22128000  0.63048000  0.00000000  1.0 0.098986639
H  H73  1  0.72128000  0.86952000  0.00000000  1.0 0.098986639
H  H74  1  0.72128000  0.36952000  0.50000000  1.0 0.098986639
H  H75  1  0.22128000  0.86952000  0.50000000  1.0 0.098986639
H  H76  1  0.22128000  0.36952000  0.00000000  1.0 0.098986639
H  H77  1  0.27872000  0.86952000  0.00000000  1.0 0.098986639
H  H78  1  0.27872000  0.36952000  0.50000000  1.0 0.098986639
H  H79  1  0.77872000  0.86952000  0.50000000  1.0 0.098986639
H  H80  1  0.77872000  0.36952000  0.00000000  1.0 0.098986639
H  H81  1  0.13048000  0.00000000  0.72128000  1.0 0.098986639
H  H82  1  0.13048000  0.50000000  0.22128000  1.0 0.098986639
H  H83  1  0.63048000  0.00000000  0.22128000  1.0 0.098986639
H  H84  1  0.63048000  0.50000000  0.72128000  1.0 0.098986639
H  H85  1  0.13048000  0.00000000  0.27872000  1.0 0.098986639
H  H86  1  0.13048000  0.50000000  0.77872000  1.0 0.098986639
H  H87  1  0.63048000  0.00000000  0.77872000  1.0 0.098986639
H  H88  1  0.63048000  0.50000000  0.27872000  1.0 0.098986639
H  H89  1  0.86952000  0.00000000  0.27872000  1.0 0.098986639
H  H90  1  0.86952000  0.50000000  0.77872000  1.0 0.098986639
H  H91  1  0.36952000  0.00000000  0.77872000  1.0 0.098986639
H  H92  1  0.36952000  0.50000000  0.27872000  1.0 0.098986639
H  H93  1  0.86952000  0.00000000  0.72128000  1.0 0.098986639
H  H94  1  0.86952000  0.50000000  0.22128000  1.0 0.098986639
H  H95  1  0.36952000  0.00000000  0.22128000  1.0 0.098986639
H  H96  1  0.36952000  0.50000000  0.72128000  1.0 0.098986639
C  C1  1  0.26750000  0.00000000  0.18440000  1.0 -0.0981507943
C  C2  1  0.26750000  0.50000000  0.68440000  1.0 -0.0981507943
C  C3  1  0.76750000  0.00000000  0.68440000  1.0 -0.0981507943
C  C4  1  0.76750000  0.50000000  0.18440000  1.0 -0.0981507943
C  C5  1  0.73250000  0.00000000  0.18440000  1.0 -0.0981507943
C  C6  1  0.73250000  0.50000000  0.68440000  1.0 -0.0981507943
C  C7  1  0.23250000  0.00000000  0.68440000  1.0 -0.0981507943
C  C8  1  0.23250000  0.50000000  0.18440000  1.0 -0.0981507943
C  C9  1  0.73250000  0.00000000  0.81560000  1.0 -0.0981507943
C  C10  1  0.73250000  0.50000000  0.31560000  1.0 -0.0981507943
C  C11  1  0.23250000  0.00000000  0.31560000  1.0 -0.0981507943
C  C12  1  0.23250000  0.50000000  0.81560000  1.0 -0.0981507943
C  C13  1  0.26750000  0.00000000  0.81560000  1.0 -0.0981507943
C  C14  1  0.26750000  0.50000000  0.31560000  1.0 -0.0981507943
C  C15  1  0.76750000  0.00000000  0.31560000  1.0 -0.0981507943
C  C16  1  0.76750000  0.50000000  0.81560000  1.0 -0.0981507943
C  C17  1  0.18440000  0.26750000  0.00000000  1.0 -0.0981507943
C  C18  1  0.18440000  0.76750000  0.50000000  1.0 -0.0981507943
C  C19  1  0.68440000  0.26750000  0.50000000  1.0 -0.0981507943
C  C20  1  0.68440000  0.76750000  0.00000000  1.0 -0.0981507943
C  C21  1  0.18440000  0.73250000  0.00000000  1.0 -0.0981507943
C  C22  1  0.18440000  0.23250000  0.50000000  1.0 -0.0981507943
C  C23  1  0.68440000  0.73250000  0.50000000  1.0 -0.0981507943
C  C24  1  0.68440000  0.23250000  0.00000000  1.0 -0.0981507943
C  C25  1  0.81560000  0.73250000  0.00000000  1.0 -0.0981507943
C  C26  1  0.81560000  0.23250000  0.50000000  1.0 -0.0981507943
C  C27  1  0.31560000  0.73250000  0.50000000  1.0 -0.0981507943
C  C28  1  0.31560000  0.23250000  0.00000000  1.0 -0.0981507943
C  C29  1  0.81560000  0.26750000  0.00000000  1.0 -0.0981507943
C  C30  1  0.81560000  0.76750000  0.50000000  1.0 -0.0981507943
C  C31  1  0.31560000  0.26750000  0.50000000  1.0 -0.0981507943
C  C32  1  0.31560000  0.76750000  0.00000000  1.0 -0.0981507943
C  C33  1  0.00000000  0.18440000  0.26750000  1.0 -0.0981507943
C  C34  1  0.00000000  0.68440000  0.76750000  1.0 -0.0981507943
C  C35  1  0.50000000  0.18440000  0.76750000  1.0 -0.0981507943
C  C36  1  0.50000000  0.68440000  0.26750000  1.0 -0.0981507943
C  C37  1  0.00000000  0.18440000  0.73250000  1.0 -0.0981507943
C  C38  1  0.00000000  0.68440000  0.23250000  1.0 -0.0981507943
C  C39  1  0.50000000  0.18440000  0.23250000  1.0 -0.0981507943
C  C40  1  0.50000000  0.68440000  0.73250000  1.0 -0.0981507943
C  C41  1  0.00000000  0.81560000  0.73250000  1.0 -0.0981507943
C  C42  1  0.00000000  0.31560000  0.23250000  1.0 -0.0981507943
C  C43  1  0.50000000  0.81560000  0.23250000  1.0 -0.0981507943
C  C44  1  0.50000000  0.31560000  0.73250000  1.0 -0.0981507943
C  C45  1  0.00000000  0.81560000  0.26750000  1.0 -0.0981507943
C  C46  1  0.00000000  0.31560000  0.76750000  1.0 -0.0981507943
C  C47  1  0.50000000  0.81560000  0.76750000  1.0 -0.0981507943
C  C48  1  0.50000000  0.31560000  0.26750000  1.0 -0.0981507943
C  C49  1  0.00000000  0.26750000  0.81560000  1.0 -0.0981507943
C  C50  1  0.00000000  0.76750000  0.31560000  1.0 -0.0981507943
C  C51  1  0.50000000  0.26750000  0.31560000  1.0 -0.0981507943
C  C52  1  0.50000000  0.76750000  0.81560000  1.0 -0.0981507943
C  C53  1  0.00000000  0.73250000  0.81560000  1.0 -0.0981507943
C  C54  1  0.00000000  0.23250000  0.31560000  1.0 -0.0981507943
C  C55  1  0.50000000  0.73250000  0.31560000  1.0 -0.0981507943
C  C56  1  0.50000000  0.23250000  0.81560000  1.0 -0.0981507943
C  C57  1  0.00000000  0.73250000  0.18440000  1.0 -0.0981507943
C  C58  1  0.00000000  0.23250000  0.68440000  1.0 -0.0981507943
C  C59  1  0.50000000  0.73250000  0.68440000  1.0 -0.0981507943
C  C60  1  0.50000000  0.23250000  0.18440000  1.0 -0.0981507943
C  C61  1  0.00000000  0.26750000  0.18440000  1.0 -0.0981507943
C  C62  1  0.00000000  0.76750000  0.68440000  1.0 -0.0981507943
C  C63  1  0.50000000  0.26750000  0.68440000  1.0 -0.0981507943
C  C64  1  0.50000000  0.76750000  0.18440000  1.0 -0.0981507943
C  C65  1  0.26750000  0.18440000  0.00000000  1.0 -0.0981507943
C  C66  1  0.26750000  0.68440000  0.50000000  1.0 -0.0981507943
C  C67  1  0.76750000  0.18440000  0.50000000  1.0 -0.0981507943
C  C68  1  0.76750000  0.68440000  0.00000000  1.0 -0.0981507943
C  C69  1  0.73250000  0.18440000  0.00000000  1.0 -0.0981507943
C  C70  1  0.73250000  0.68440000  0.50000000  1.0 -0.0981507943
C  C71  1  0.23250000  0.18440000  0.50000000  1.0 -0.0981507943
C  C72  1  0.23250000  0.68440000  0.00000000  1.0 -0.0981507943
C  C73  1  0.73250000  0.81560000  0.00000000  1.0 -0.0981507943
C  C74  1  0.73250000  0.31560000  0.50000000  1.0 -0.0981507943
C  C75  1  0.23250000  0.81560000  0.50000000  1.0 -0.0981507943
C  C76  1  0.23250000  0.31560000  0.00000000  1.0 -0.0981507943
C  C77  1  0.26750000  0.81560000  0.00000000  1.0 -0.0981507943
C  C78  1  0.26750000  0.31560000  0.50000000  1.0 -0.0981507943
C  C79  1  0.76750000  0.81560000  0.50000000  1.0 -0.0981507943
C  C80  1  0.76750000  0.31560000  0.00000000  1.0 -0.0981507943
C  C81  1  0.18440000  0.00000000  0.73250000  1.0 -0.0981507943
C  C82  1  0.18440000  0.50000000  0.23250000  1.0 -0.0981507943
C  C83  1  0.68440000  0.00000000  0.23250000  1.0 -0.0981507943
C  C84  1  0.68440000  0.50000000  0.73250000  1.0 -0.0981507943
C  C85  1  0.18440000  0.00000000  0.26750000  1.0 -0.0981507943
C  C86  1  0.18440000  0.50000000  0.76750000  1.0 -0.0981507943
C  C87  1  0.68440000  0.00000000  0.76750000  1.0 -0.0981507943
C  C88  1  0.68440000  0.50000000  0.26750000  1.0 -0.0981507943
C  C89  1  0.81560000  0.00000000  0.26750000  1.0 -0.0981507943
C  C90  1  0.81560000  0.50000000  0.76750000  1.0 -0.0981507943
C  C91  1  0.31560000  0.00000000  0.76750000  1.0 -0.0981507943
C  C92  1  0.31560000  0.50000000  0.26750000  1.0 -0.0981507943
C  C93  1  0.81560000  0.00000000  0.73250000  1.0 -0.0981507943
C  C94  1  0.81560000  0.50000000  0.23250000  1.0 -0.0981507943
C  C95  1  0.31560000  0.00000000  0.23250000  1.0 -0.0981507943
C  C96  1  0.31560000  0.50000000  0.73250000  1.0 -0.0981507943
C  C97  1  0.15360000  0.00000000  0.84640000  1.0 0.6486929421
C  C98  1  0.15360000  0.50000000  0.34640000  1.0 0.6486929421
C  C99  1  0.65360000  0.00000000  0.34640000  1.0 0.6391187077
C  C100  1  0.65360000  0.50000000  0.84640000  1.0 0.6391187077
C  C101  1  0.84640000  0.00000000  0.84640000  1.0 0.6486929421
C  C102  1  0.84640000  0.50000000  0.34640000  1.0 0.6391187077
C  C103  1  0.34640000  0.00000000  0.34640000  1.0 0.6391187077
C  C104  1  0.34640000  0.50000000  0.84640000  1.0 0.6486929421
C  C105  1  0.84640000  0.00000000  0.15360000  1.0 0.6391187077
C  C106  1  0.84640000  0.50000000  0.65360000  1.0 0.6486929421
C  C107  1  0.34640000  0.00000000  0.65360000  1.0 0.6486929421
C  C108  1  0.34640000  0.50000000  0.15360000  1.0 0.6391187077
C  C109  1  0.15360000  0.00000000  0.15360000  1.0 0.6391187077
C  C110  1  0.15360000  0.50000000  0.65360000  1.0 0.6391187077
C  C111  1  0.65360000  0.00000000  0.65360000  1.0 0.6486929421
C  C112  1  0.65360000  0.50000000  0.15360000  1.0 0.6486929421
C  C113  1  0.84640000  0.15360000  0.00000000  1.0 0.6391187077
C  C114  1  0.84640000  0.65360000  0.50000000  1.0 0.6486929421
C  C115  1  0.34640000  0.15360000  0.50000000  1.0 0.6486929421
C  C116  1  0.34640000  0.65360000  0.00000000  1.0 0.6486929421
C  C117  1  0.84640000  0.84640000  0.00000000  1.0 0.6486929421
C  C118  1  0.84640000  0.34640000  0.50000000  1.0 0.6391187077
C  C119  1  0.34640000  0.84640000  0.50000000  1.0 0.6391187077
C  C120  1  0.34640000  0.34640000  0.00000000  1.0 0.6391187077
C  C121  1  0.15360000  0.84640000  0.00000000  1.0 0.6391187077
C  C122  1  0.15360000  0.34640000  0.50000000  1.0 0.6391187077
C  C123  1  0.65360000  0.84640000  0.50000000  1.0 0.6486929421
C  C124  1  0.65360000  0.34640000  0.00000000  1.0 0.6486929421
C  C125  1  0.15360000  0.15360000  0.00000000  1.0 0.6486929421
C  C126  1  0.15360000  0.65360000  0.50000000  1.0 0.6486929421
C  C127  1  0.65360000  0.15360000  0.50000000  1.0 0.6391187077
C  C128  1  0.65360000  0.65360000  0.00000000  1.0 0.6391187077
C  C129  1  0.00000000  0.84640000  0.15360000  1.0 0.6391187077
C  C130  1  0.00000000  0.34640000  0.65360000  1.0 0.6391187077
C  C131  1  0.50000000  0.84640000  0.65360000  1.0 0.6486929421
C  C132  1  0.50000000  0.34640000  0.15360000  1.0 0.6391187077
C  C133  1  0.00000000  0.84640000  0.84640000  1.0 0.6486929421
C  C134  1  0.00000000  0.34640000  0.34640000  1.0 0.6391187077
C  C135  1  0.50000000  0.84640000  0.34640000  1.0 0.6391187077
C  C136  1  0.50000000  0.34640000  0.84640000  1.0 0.6486929421
C  C137  1  0.00000000  0.15360000  0.84640000  1.0 0.6486929421
C  C138  1  0.00000000  0.65360000  0.34640000  1.0 0.6486929421
C  C139  1  0.50000000  0.15360000  0.34640000  1.0 0.6391187077
C  C140  1  0.50000000  0.65360000  0.84640000  1.0 0.6391187077
C  C141  1  0.00000000  0.15360000  0.15360000  1.0 0.6391187077
C  C142  1  0.00000000  0.65360000  0.65360000  1.0 0.6486929421
C  C143  1  0.50000000  0.15360000  0.65360000  1.0 0.6486929421
C  C144  1  0.50000000  0.65360000  0.15360000  1.0 0.6486929421
C  C145  1  0.20500000  0.00000000  0.20500000  1.0 -0.0379489398
C  C146  1  0.20500000  0.50000000  0.70500000  1.0 -0.0379489398
C  C147  1  0.70500000  0.00000000  0.70500000  1.0 -0.0379489398
C  C148  1  0.70500000  0.50000000  0.20500000  1.0 -0.0379489398
C  C149  1  0.79500000  0.00000000  0.20500000  1.0 -0.0379489398
C  C150  1  0.79500000  0.50000000  0.70500000  1.0 -0.0379489398
C  C151  1  0.29500000  0.00000000  0.70500000  1.0 -0.0379489398
C  C152  1  0.29500000  0.50000000  0.20500000  1.0 -0.0379489398
C  C153  1  0.79500000  0.00000000  0.79500000  1.0 -0.0379489398
C  C154  1  0.79500000  0.50000000  0.29500000  1.0 -0.0379489398
C  C155  1  0.29500000  0.00000000  0.29500000  1.0 -0.0379489398
C  C156  1  0.29500000  0.50000000  0.79500000  1.0 -0.0379489398
C  C157  1  0.20500000  0.00000000  0.79500000  1.0 -0.0379489398
C  C158  1  0.20500000  0.50000000  0.29500000  1.0 -0.0379489398
C  C159  1  0.70500000  0.00000000  0.29500000  1.0 -0.0379489398
C  C160  1  0.70500000  0.50000000  0.79500000  1.0 -0.0379489398
C  C161  1  0.20500000  0.20500000  0.00000000  1.0 -0.0379489398
C  C162  1  0.20500000  0.70500000  0.50000000  1.0 -0.0379489398
C  C163  1  0.70500000  0.20500000  0.50000000  1.0 -0.0379489398
C  C164  1  0.70500000  0.70500000  0.00000000  1.0 -0.0379489398
C  C165  1  0.20500000  0.79500000  0.00000000  1.0 -0.0379489398
C  C166  1  0.20500000  0.29500000  0.50000000  1.0 -0.0379489398
C  C167  1  0.70500000  0.79500000  0.50000000  1.0 -0.0379489398
C  C168  1  0.70500000  0.29500000  0.00000000  1.0 -0.0379489398
C  C169  1  0.79500000  0.79500000  0.00000000  1.0 -0.0379489398
C  C170  1  0.79500000  0.29500000  0.50000000  1.0 -0.0379489398
C  C171  1  0.29500000  0.79500000  0.50000000  1.0 -0.0379489398
C  C172  1  0.29500000  0.29500000  0.00000000  1.0 -0.0379489398
C  C173  1  0.79500000  0.20500000  0.00000000  1.0 -0.0379489398
C  C174  1  0.79500000  0.70500000  0.50000000  1.0 -0.0379489398
C  C175  1  0.29500000  0.20500000  0.50000000  1.0 -0.0379489398
C  C176  1  0.29500000  0.70500000  0.00000000  1.0 -0.0379489398
C  C177  1  0.00000000  0.20500000  0.20500000  1.0 -0.0379489398
C  C178  1  0.00000000  0.70500000  0.70500000  1.0 -0.0379489398
C  C179  1  0.50000000  0.20500000  0.70500000  1.0 -0.0379489398
C  C180  1  0.50000000  0.70500000  0.20500000  1.0 -0.0379489398
C  C181  1  0.00000000  0.20500000  0.79500000  1.0 -0.0379489398
C  C182  1  0.00000000  0.70500000  0.29500000  1.0 -0.0379489398
C  C183  1  0.50000000  0.20500000  0.29500000  1.0 -0.0379489398
C  C184  1  0.50000000  0.70500000  0.79500000  1.0 -0.0379489398
C  C185  1  0.00000000  0.79500000  0.79500000  1.0 -0.0379489398
C  C186  1  0.00000000  0.29500000  0.29500000  1.0 -0.0379489398
C  C187  1  0.50000000  0.79500000  0.29500000  1.0 -0.0379489398
C  C188  1  0.50000000  0.29500000  0.79500000  1.0 -0.0379489398
C  C189  1  0.00000000  0.79500000  0.20500000  1.0 -0.0379489398
C  C190  1  0.00000000  0.29500000  0.70500000  1.0 -0.0379489398
C  C191  1  0.50000000  0.79500000  0.70500000  1.0 -0.0379489398
C  C192  1  0.50000000  0.29500000  0.20500000  1.0 -0.0379489398
O  O1  1  0.17047000  0.00000000  0.09530000  1.0 -0.5786137715
O  O2  1  0.17047000  0.50000000  0.59530000  1.0 -0.6157767733
O  O3  1  0.67047000  0.00000000  0.59530000  1.0 -0.6157767733
O  O4  1  0.67047000  0.50000000  0.09530000  1.0 -0.5786137715
O  O5  1  0.82953000  0.00000000  0.09530000  1.0 -0.5786137715
O  O6  1  0.82953000  0.50000000  0.59530000  1.0 -0.5786137715
O  O7  1  0.32953000  0.00000000  0.59530000  1.0 -0.6157767733
O  O8  1  0.32953000  0.50000000  0.09530000  1.0 -0.6157767733
O  O9  1  0.82953000  0.00000000  0.90470000  1.0 -0.6157767733
O  O10  1  0.82953000  0.50000000  0.40470000  1.0 -0.6157767733
O  O11  1  0.32953000  0.00000000  0.40470000  1.0 -0.5786137715
O  O12  1  0.32953000  0.50000000  0.90470000  1.0 -0.5786137715
O  O13  1  0.17047000  0.00000000  0.90470000  1.0 -0.6157767733
O  O14  1  0.17047000  0.50000000  0.40470000  1.0 -0.5786137715
O  O15  1  0.67047000  0.00000000  0.40470000  1.0 -0.5786137715
O  O16  1  0.67047000  0.50000000  0.90470000  1.0 -0.6157767733
O  O17  1  0.09530000  0.17047000  0.00000000  1.0 -0.5786137715
O  O18  1  0.09530000  0.67047000  0.50000000  1.0 -0.6157767733
O  O19  1  0.59530000  0.17047000  0.50000000  1.0 -0.6157767733
O  O20  1  0.59530000  0.67047000  0.00000000  1.0 -0.6157767733
O  O21  1  0.09530000  0.82953000  0.00000000  1.0 -0.6157767733
O  O22  1  0.09530000  0.32953000  0.50000000  1.0 -0.5786137715
O  O23  1  0.59530000  0.82953000  0.50000000  1.0 -0.5786137715
O  O24  1  0.59530000  0.32953000  0.00000000  1.0 -0.5786137715
O  O25  1  0.90470000  0.82953000  0.00000000  1.0 -0.5786137715
O  O26  1  0.90470000  0.32953000  0.50000000  1.0 -0.5786137715
O  O27  1  0.40470000  0.82953000  0.50000000  1.0 -0.6157767733
O  O28  1  0.40470000  0.32953000  0.00000000  1.0 -0.6157767733
O  O29  1  0.90470000  0.17047000  0.00000000  1.0 -0.6157767733
O  O30  1  0.90470000  0.67047000  0.50000000  1.0 -0.6157767733
O  O31  1  0.40470000  0.17047000  0.50000000  1.0 -0.5786137715
O  O32  1  0.40470000  0.67047000  0.00000000  1.0 -0.5786137715
O  O33  1  0.00000000  0.09530000  0.17047000  1.0 -0.5786137715
O  O34  1  0.00000000  0.59530000  0.67047000  1.0 -0.6157767733
O  O35  1  0.50000000  0.09530000  0.67047000  1.0 -0.6157767733
O  O36  1  0.50000000  0.59530000  0.17047000  1.0 -0.5786137715
O  O37  1  0.00000000  0.09530000  0.82953000  1.0 -0.6157767733
O  O38  1  0.00000000  0.59530000  0.32953000  1.0 -0.6157767733
O  O39  1  0.50000000  0.09530000  0.32953000  1.0 -0.5786137715
O  O40  1  0.50000000  0.59530000  0.82953000  1.0 -0.6157767733
O  O41  1  0.00000000  0.90470000  0.82953000  1.0 -0.6157767733
O  O42  1  0.00000000  0.40470000  0.32953000  1.0 -0.5786137715
O  O43  1  0.50000000  0.90470000  0.32953000  1.0 -0.5786137715
O  O44  1  0.50000000  0.40470000  0.82953000  1.0 -0.5786137715
O  O45  1  0.00000000  0.90470000  0.17047000  1.0 -0.5786137715
O  O46  1  0.00000000  0.40470000  0.67047000  1.0 -0.5786137715
O  O47  1  0.50000000  0.90470000  0.67047000  1.0 -0.6157767733
O  O48  1  0.50000000  0.40470000  0.17047000  1.0 -0.6157767733
O  O49  1  0.00000000  0.17047000  0.90470000  1.0 -0.6157767733
O  O50  1  0.00000000  0.67047000  0.40470000  1.0 -0.6157767733
O  O51  1  0.50000000  0.17047000  0.40470000  1.0 -0.5786137715
O  O52  1  0.50000000  0.67047000  0.90470000  1.0 -0.6157767733
O  O53  1  0.00000000  0.82953000  0.90470000  1.0 -0.6157767733
O  O54  1  0.00000000  0.32953000  0.40470000  1.0 -0.5786137715
O  O55  1  0.50000000  0.82953000  0.40470000  1.0 -0.5786137715
O  O56  1  0.50000000  0.32953000  0.90470000  1.0 -0.5786137715
O  O57  1  0.00000000  0.82953000  0.09530000  1.0 -0.5786137715
O  O58  1  0.00000000  0.32953000  0.59530000  1.0 -0.5786137715
O  O59  1  0.50000000  0.82953000  0.59530000  1.0 -0.6157767733
O  O60  1  0.50000000  0.32953000  0.09530000  1.0 -0.6157767733
O  O61  1  0.00000000  0.17047000  0.09530000  1.0 -0.5786137715
O  O62  1  0.00000000  0.67047000  0.59530000  1.0 -0.6157767733
O  O63  1  0.50000000  0.17047000  0.59530000  1.0 -0.6157767733
O  O64  1  0.50000000  0.67047000  0.09530000  1.0 -0.5786137715
O  O65  1  0.17047000  0.09530000  0.00000000  1.0 -0.5786137715
O  O66  1  0.17047000  0.59530000  0.50000000  1.0 -0.6157767733
O  O67  1  0.67047000  0.09530000  0.50000000  1.0 -0.6157767733
O  O68  1  0.67047000  0.59530000  0.00000000  1.0 -0.6157767733
O  O69  1  0.82953000  0.09530000  0.00000000  1.0 -0.6157767733
O  O70  1  0.82953000  0.59530000  0.50000000  1.0 -0.6157767733
O  O71  1  0.32953000  0.09530000  0.50000000  1.0 -0.5786137715
O  O72  1  0.32953000  0.59530000  0.00000000  1.0 -0.5786137715
O  O73  1  0.82953000  0.90470000  0.00000000  1.0 -0.5786137715
O  O74  1  0.82953000  0.40470000  0.50000000  1.0 -0.5786137715
O  O75  1  0.32953000  0.90470000  0.50000000  1.0 -0.6157767733
O  O76  1  0.32953000  0.40470000  0.00000000  1.0 -0.6157767733
O  O77  1  0.17047000  0.90470000  0.00000000  1.0 -0.6157767733
O  O78  1  0.17047000  0.40470000  0.50000000  1.0 -0.5786137715
O  O79  1  0.67047000  0.90470000  0.50000000  1.0 -0.5786137715
O  O80  1  0.67047000  0.40470000  0.00000000  1.0 -0.5786137715
O  O81  1  0.09530000  0.00000000  0.82953000  1.0 -0.6157767733
O  O82  1  0.09530000  0.50000000  0.32953000  1.0 -0.5786137715
O  O83  1  0.59530000  0.00000000  0.32953000  1.0 -0.5786137715
O  O84  1  0.59530000  0.50000000  0.82953000  1.0 -0.6157767733
O  O85  1  0.09530000  0.00000000  0.17047000  1.0 -0.5786137715
O  O86  1  0.09530000  0.50000000  0.67047000  1.0 -0.6157767733
O  O87  1  0.59530000  0.00000000  0.67047000  1.0 -0.6157767733
O  O88  1  0.59530000  0.50000000  0.17047000  1.0 -0.5786137715
O  O89  1  0.90470000  0.00000000  0.17047000  1.0 -0.5786137715
O  O90  1  0.90470000  0.50000000  0.67047000  1.0 -0.5786137715
O  O91  1  0.40470000  0.00000000  0.67047000  1.0 -0.6157767733
O  O92  1  0.40470000  0.50000000  0.17047000  1.0 -0.6157767733
O  O93  1  0.90470000  0.00000000  0.82953000  1.0 -0.6157767733
O  O94  1  0.90470000  0.50000000  0.32953000  1.0 -0.6157767733
O  O95  1  0.40470000  0.00000000  0.32953000  1.0 -0.5786137715
O  O96  1  0.40470000  0.50000000  0.82953000  1.0 -0.5786137715
O  O97  1  0.05610000  0.44390000  0.44390000  1.0 -1.0415724228
O  O98  1  0.55610000  0.94390000  0.44390000  1.0 -1.0415724228
O  O99  1  0.55610000  0.44390000  0.94390000  1.0 -1.1438500593
O  O100  1  0.44390000  0.05610000  0.44390000  1.0 -1.0415724228
O  O101  1  0.44390000  0.55610000  0.94390000  1.0 -1.1438500593
O  O102  1  0.94390000  0.94390000  0.05610000  1.0 -1.0415724228
O  O103  1  0.94390000  0.44390000  0.55610000  1.0 -1.0415724228
O  O104  1  0.05610000  0.05610000  0.05610000  1.0 -1.0415724228
O  O105  1  0.55610000  0.55610000  0.05610000  1.0 -1.1438500593
O  O106  1  0.94390000  0.05610000  0.05610000  1.0 -1.1140643269
O  O107  1  0.94390000  0.55610000  0.55610000  1.0 -1.2310492506
O  O108  1  0.44390000  0.05610000  0.55610000  1.0 -1.2310492506
O  O109  1  0.44390000  0.55610000  0.05610000  1.0 -1.1438500593
O  O110  1  0.05610000  0.94390000  0.05610000  1.0 -1.1140643269
O  O111  1  0.05610000  0.44390000  0.55610000  1.0 -1.1140643269
O  O112  1  0.55610000  0.94390000  0.55610000  1.0 -1.2310492506
O  O113  1  0.55610000  0.44390000  0.05610000  1.0 -1.1438500593
O  O114  1  0.94390000  0.94390000  0.94390000  1.0 -1.2310492506
O  O115  1  0.94390000  0.44390000  0.44390000  1.0 -1.1140643269
O  O116  1  0.44390000  0.94390000  0.44390000  1.0 -1.1140643269
O  O117  1  0.44390000  0.44390000  0.94390000  1.0 -1.1438500593
O  O118  1  0.05610000  0.05610000  0.94390000  1.0 -1.2310492506
O  O119  1  0.05610000  0.55610000  0.44390000  1.0 -1.2310492506
O  O120  1  0.55610000  0.05610000  0.44390000  1.0 -1.1140643269
=======
Zr  Zr1  1  0.11989000  0.00000000  0.00000000  1.0 2.3104182308
Zr  Zr2  1  0.11989000  0.50000000  0.50000000  1.0 2.3104182308
Zr  Zr3  1  0.61989000  0.00000000  0.50000000  1.0 2.3104182308
Zr  Zr4  1  0.61989000  0.50000000  0.00000000  1.0 2.3197601463
Zr  Zr5  1  0.88011000  0.00000000  0.00000000  1.0 2.3104182308
Zr  Zr6  1  0.88011000  0.50000000  0.50000000  1.0 2.3104182308
Zr  Zr7  1  0.38011000  0.00000000  0.50000000  1.0 2.3104182308
Zr  Zr8  1  0.38011000  0.50000000  0.00000000  1.0 2.3197601463
Zr  Zr9  1  0.00000000  0.11989000  0.00000000  1.0 2.3104182308
Zr  Zr10  1  0.00000000  0.61989000  0.50000000  1.0 2.1940351948
Zr  Zr11  1  0.50000000  0.11989000  0.50000000  1.0 2.3104182308
Zr  Zr12  1  0.50000000  0.61989000  0.00000000  1.0 2.3197601463
Zr  Zr13  1  0.00000000  0.88011000  0.00000000  1.0 2.3104182308
Zr  Zr14  1  0.00000000  0.38011000  0.50000000  1.0 2.3728238568
Zr  Zr15  1  0.50000000  0.88011000  0.50000000  1.0 2.3104182308
Zr  Zr16  1  0.50000000  0.38011000  0.00000000  1.0 2.3197601463
Zr  Zr17  1  0.00000000  0.00000000  0.11989000  1.0 2.3728238568
Zr  Zr18  1  0.00000000  0.50000000  0.61989000  1.0 2.3104182308
Zr  Zr19  1  0.50000000  0.00000000  0.61989000  1.0 2.1950365529
Zr  Zr20  1  0.50000000  0.50000000  0.11989000  1.0 2.3197601463
Zr  Zr21  1  0.00000000  0.00000000  0.88011000  1.0 2.1950365529
Zr  Zr22  1  0.00000000  0.50000000  0.38011000  1.0 2.3104182308
Zr  Zr23  1  0.50000000  0.00000000  0.38011000  1.0 2.3728238568
Zr  Zr24  1  0.50000000  0.50000000  0.88011000  1.0 2.3197601463
H  H1  1  0.27872000  0.00000000  0.13048000  1.0 0.0985909903
H  H2  1  0.27872000  0.50000000  0.63048000  1.0 0.0985909903
H  H3  1  0.77872000  0.00000000  0.63048000  1.0 0.0985909903
H  H4  1  0.77872000  0.50000000  0.13048000  1.0 0.0985909903
H  H5  1  0.72128000  0.00000000  0.13048000  1.0 0.0985909903
H  H6  1  0.72128000  0.50000000  0.63048000  1.0 0.0985909903
H  H7  1  0.22128000  0.00000000  0.63048000  1.0 0.0985909903
H  H8  1  0.22128000  0.50000000  0.13048000  1.0 0.0985909903
H  H9  1  0.72128000  0.00000000  0.86952000  1.0 0.0985909903
H  H10  1  0.72128000  0.50000000  0.36952000  1.0 0.0985909903
H  H11  1  0.22128000  0.00000000  0.36952000  1.0 0.0985909903
H  H12  1  0.22128000  0.50000000  0.86952000  1.0 0.0985909903
H  H13  1  0.27872000  0.00000000  0.86952000  1.0 0.0985909903
H  H14  1  0.27872000  0.50000000  0.36952000  1.0 0.0985909903
H  H15  1  0.77872000  0.00000000  0.36952000  1.0 0.0985909903
H  H16  1  0.77872000  0.50000000  0.86952000  1.0 0.0985909903
H  H17  1  0.13048000  0.27872000  0.00000000  1.0 0.0985909903
H  H18  1  0.13048000  0.77872000  0.50000000  1.0 0.0985909903
H  H19  1  0.63048000  0.27872000  0.50000000  1.0 0.0985909903
H  H20  1  0.63048000  0.77872000  0.00000000  1.0 0.0985909903
H  H21  1  0.13048000  0.72128000  0.00000000  1.0 0.0985909903
H  H22  1  0.13048000  0.22128000  0.50000000  1.0 0.0985909903
H  H23  1  0.63048000  0.72128000  0.50000000  1.0 0.0985909903
H  H24  1  0.63048000  0.22128000  0.00000000  1.0 0.0985909903
H  H25  1  0.86952000  0.72128000  0.00000000  1.0 0.0985909903
H  H26  1  0.86952000  0.22128000  0.50000000  1.0 0.0985909903
H  H27  1  0.36952000  0.72128000  0.50000000  1.0 0.0985909903
H  H28  1  0.36952000  0.22128000  0.00000000  1.0 0.0985909903
H  H29  1  0.86952000  0.27872000  0.00000000  1.0 0.0985909903
H  H30  1  0.86952000  0.77872000  0.50000000  1.0 0.0985909903
H  H31  1  0.36952000  0.27872000  0.50000000  1.0 0.0985909903
H  H32  1  0.36952000  0.77872000  0.00000000  1.0 0.0985909903
H  H33  1  0.00000000  0.13048000  0.27872000  1.0 0.0985909903
H  H34  1  0.00000000  0.63048000  0.77872000  1.0 0.0985909903
H  H35  1  0.50000000  0.13048000  0.77872000  1.0 0.0985909903
H  H36  1  0.50000000  0.63048000  0.27872000  1.0 0.0985909903
H  H37  1  0.00000000  0.13048000  0.72128000  1.0 0.0985909903
H  H38  1  0.00000000  0.63048000  0.22128000  1.0 0.0985909903
H  H39  1  0.50000000  0.13048000  0.22128000  1.0 0.0985909903
H  H40  1  0.50000000  0.63048000  0.72128000  1.0 0.0985909903
H  H41  1  0.00000000  0.86952000  0.72128000  1.0 0.0985909903
H  H42  1  0.00000000  0.36952000  0.22128000  1.0 0.0985909903
H  H43  1  0.50000000  0.86952000  0.22128000  1.0 0.0985909903
H  H44  1  0.50000000  0.36952000  0.72128000  1.0 0.0985909903
H  H45  1  0.00000000  0.86952000  0.27872000  1.0 0.0985909903
H  H46  1  0.00000000  0.36952000  0.77872000  1.0 0.0985909903
H  H47  1  0.50000000  0.86952000  0.77872000  1.0 0.0985909903
H  H48  1  0.50000000  0.36952000  0.27872000  1.0 0.0985909903
H  H49  1  0.00000000  0.27872000  0.86952000  1.0 0.0985909903
H  H50  1  0.00000000  0.77872000  0.36952000  1.0 0.0985909903
H  H51  1  0.50000000  0.27872000  0.36952000  1.0 0.0985909903
H  H52  1  0.50000000  0.77872000  0.86952000  1.0 0.0985909903
H  H53  1  0.00000000  0.72128000  0.86952000  1.0 0.0985909903
H  H54  1  0.00000000  0.22128000  0.36952000  1.0 0.0985909903
H  H55  1  0.50000000  0.72128000  0.36952000  1.0 0.0985909903
H  H56  1  0.50000000  0.22128000  0.86952000  1.0 0.0985909903
H  H57  1  0.00000000  0.72128000  0.13048000  1.0 0.0985909903
H  H58  1  0.00000000  0.22128000  0.63048000  1.0 0.0985909903
H  H59  1  0.50000000  0.72128000  0.63048000  1.0 0.0985909903
H  H60  1  0.50000000  0.22128000  0.13048000  1.0 0.0985909903
H  H61  1  0.00000000  0.27872000  0.13048000  1.0 0.0985909903
H  H62  1  0.00000000  0.77872000  0.63048000  1.0 0.0985909903
H  H63  1  0.50000000  0.27872000  0.63048000  1.0 0.0985909903
H  H64  1  0.50000000  0.77872000  0.13048000  1.0 0.0985909903
H  H65  1  0.27872000  0.13048000  0.00000000  1.0 0.0985909903
H  H66  1  0.27872000  0.63048000  0.50000000  1.0 0.0985909903
H  H67  1  0.77872000  0.13048000  0.50000000  1.0 0.0985909903
H  H68  1  0.77872000  0.63048000  0.00000000  1.0 0.0985909903
H  H69  1  0.72128000  0.13048000  0.00000000  1.0 0.0985909903
H  H70  1  0.72128000  0.63048000  0.50000000  1.0 0.0985909903
H  H71  1  0.22128000  0.13048000  0.50000000  1.0 0.0985909903
H  H72  1  0.22128000  0.63048000  0.00000000  1.0 0.0985909903
H  H73  1  0.72128000  0.86952000  0.00000000  1.0 0.0985909903
H  H74  1  0.72128000  0.36952000  0.50000000  1.0 0.0985909903
H  H75  1  0.22128000  0.86952000  0.50000000  1.0 0.0985909903
H  H76  1  0.22128000  0.36952000  0.00000000  1.0 0.0985909903
H  H77  1  0.27872000  0.86952000  0.00000000  1.0 0.0985909903
H  H78  1  0.27872000  0.36952000  0.50000000  1.0 0.0985909903
H  H79  1  0.77872000  0.86952000  0.50000000  1.0 0.0985909903
H  H80  1  0.77872000  0.36952000  0.00000000  1.0 0.0985909903
H  H81  1  0.13048000  0.00000000  0.72128000  1.0 0.0985909903
H  H82  1  0.13048000  0.50000000  0.22128000  1.0 0.0985909903
H  H83  1  0.63048000  0.00000000  0.22128000  1.0 0.0985909903
H  H84  1  0.63048000  0.50000000  0.72128000  1.0 0.0985909903
H  H85  1  0.13048000  0.00000000  0.27872000  1.0 0.0985909903
H  H86  1  0.13048000  0.50000000  0.77872000  1.0 0.0985909903
H  H87  1  0.63048000  0.00000000  0.77872000  1.0 0.0985909903
H  H88  1  0.63048000  0.50000000  0.27872000  1.0 0.0985909903
H  H89  1  0.86952000  0.00000000  0.27872000  1.0 0.0985909903
H  H90  1  0.86952000  0.50000000  0.77872000  1.0 0.0985909903
H  H91  1  0.36952000  0.00000000  0.77872000  1.0 0.0985909903
H  H92  1  0.36952000  0.50000000  0.27872000  1.0 0.0985909903
H  H93  1  0.86952000  0.00000000  0.72128000  1.0 0.0985909903
H  H94  1  0.86952000  0.50000000  0.22128000  1.0 0.0985909903
H  H95  1  0.36952000  0.00000000  0.22128000  1.0 0.0985909903
H  H96  1  0.36952000  0.50000000  0.72128000  1.0 0.0985909903
C  C1  1  0.26750000  0.00000000  0.18440000  1.0 -0.0975168483
C  C2  1  0.26750000  0.50000000  0.68440000  1.0 -0.0975168483
C  C3  1  0.76750000  0.00000000  0.68440000  1.0 -0.0975168483
C  C4  1  0.76750000  0.50000000  0.18440000  1.0 -0.0975168483
C  C5  1  0.73250000  0.00000000  0.18440000  1.0 -0.0975168483
C  C6  1  0.73250000  0.50000000  0.68440000  1.0 -0.0975168483
C  C7  1  0.23250000  0.00000000  0.68440000  1.0 -0.0975168483
C  C8  1  0.23250000  0.50000000  0.18440000  1.0 -0.0975168483
C  C9  1  0.73250000  0.00000000  0.81560000  1.0 -0.0975168483
C  C10  1  0.73250000  0.50000000  0.31560000  1.0 -0.0975168483
C  C11  1  0.23250000  0.00000000  0.31560000  1.0 -0.0975168483
C  C12  1  0.23250000  0.50000000  0.81560000  1.0 -0.0975168483
C  C13  1  0.26750000  0.00000000  0.81560000  1.0 -0.0975168483
C  C14  1  0.26750000  0.50000000  0.31560000  1.0 -0.0975168483
C  C15  1  0.76750000  0.00000000  0.31560000  1.0 -0.0975168483
C  C16  1  0.76750000  0.50000000  0.81560000  1.0 -0.0975168483
C  C17  1  0.18440000  0.26750000  0.00000000  1.0 -0.0975168483
C  C18  1  0.18440000  0.76750000  0.50000000  1.0 -0.0975168483
C  C19  1  0.68440000  0.26750000  0.50000000  1.0 -0.0975168483
C  C20  1  0.68440000  0.76750000  0.00000000  1.0 -0.0975168483
C  C21  1  0.18440000  0.73250000  0.00000000  1.0 -0.0975168483
C  C22  1  0.18440000  0.23250000  0.50000000  1.0 -0.0975168483
C  C23  1  0.68440000  0.73250000  0.50000000  1.0 -0.0975168483
C  C24  1  0.68440000  0.23250000  0.00000000  1.0 -0.0975168483
C  C25  1  0.81560000  0.73250000  0.00000000  1.0 -0.0975168483
C  C26  1  0.81560000  0.23250000  0.50000000  1.0 -0.0975168483
C  C27  1  0.31560000  0.73250000  0.50000000  1.0 -0.0975168483
C  C28  1  0.31560000  0.23250000  0.00000000  1.0 -0.0975168483
C  C29  1  0.81560000  0.26750000  0.00000000  1.0 -0.0975168483
C  C30  1  0.81560000  0.76750000  0.50000000  1.0 -0.0975168483
C  C31  1  0.31560000  0.26750000  0.50000000  1.0 -0.0975168483
C  C32  1  0.31560000  0.76750000  0.00000000  1.0 -0.0975168483
C  C33  1  0.00000000  0.18440000  0.26750000  1.0 -0.0975168483
C  C34  1  0.00000000  0.68440000  0.76750000  1.0 -0.0975168483
C  C35  1  0.50000000  0.18440000  0.76750000  1.0 -0.0975168483
C  C36  1  0.50000000  0.68440000  0.26750000  1.0 -0.0975168483
C  C37  1  0.00000000  0.18440000  0.73250000  1.0 -0.0975168483
C  C38  1  0.00000000  0.68440000  0.23250000  1.0 -0.0975168483
C  C39  1  0.50000000  0.18440000  0.23250000  1.0 -0.0975168483
C  C40  1  0.50000000  0.68440000  0.73250000  1.0 -0.0975168483
C  C41  1  0.00000000  0.81560000  0.73250000  1.0 -0.0975168483
C  C42  1  0.00000000  0.31560000  0.23250000  1.0 -0.0975168483
C  C43  1  0.50000000  0.81560000  0.23250000  1.0 -0.0975168483
C  C44  1  0.50000000  0.31560000  0.73250000  1.0 -0.0975168483
C  C45  1  0.00000000  0.81560000  0.26750000  1.0 -0.0975168483
C  C46  1  0.00000000  0.31560000  0.76750000  1.0 -0.0975168483
C  C47  1  0.50000000  0.81560000  0.76750000  1.0 -0.0975168483
C  C48  1  0.50000000  0.31560000  0.26750000  1.0 -0.0975168483
C  C49  1  0.00000000  0.26750000  0.81560000  1.0 -0.0975168483
C  C50  1  0.00000000  0.76750000  0.31560000  1.0 -0.0975168483
C  C51  1  0.50000000  0.26750000  0.31560000  1.0 -0.0975168483
C  C52  1  0.50000000  0.76750000  0.81560000  1.0 -0.0975168483
C  C53  1  0.00000000  0.73250000  0.81560000  1.0 -0.0975168483
C  C54  1  0.00000000  0.23250000  0.31560000  1.0 -0.0975168483
C  C55  1  0.50000000  0.73250000  0.31560000  1.0 -0.0975168483
C  C56  1  0.50000000  0.23250000  0.81560000  1.0 -0.0975168483
C  C57  1  0.00000000  0.73250000  0.18440000  1.0 -0.0975168483
C  C58  1  0.00000000  0.23250000  0.68440000  1.0 -0.0975168483
C  C59  1  0.50000000  0.73250000  0.68440000  1.0 -0.0975168483
C  C60  1  0.50000000  0.23250000  0.18440000  1.0 -0.0975168483
C  C61  1  0.00000000  0.26750000  0.18440000  1.0 -0.0975168483
C  C62  1  0.00000000  0.76750000  0.68440000  1.0 -0.0975168483
C  C63  1  0.50000000  0.26750000  0.68440000  1.0 -0.0975168483
C  C64  1  0.50000000  0.76750000  0.18440000  1.0 -0.0975168483
C  C65  1  0.26750000  0.18440000  0.00000000  1.0 -0.0975168483
C  C66  1  0.26750000  0.68440000  0.50000000  1.0 -0.0975168483
C  C67  1  0.76750000  0.18440000  0.50000000  1.0 -0.0975168483
C  C68  1  0.76750000  0.68440000  0.00000000  1.0 -0.0975168483
C  C69  1  0.73250000  0.18440000  0.00000000  1.0 -0.0975168483
C  C70  1  0.73250000  0.68440000  0.50000000  1.0 -0.0975168483
C  C71  1  0.23250000  0.18440000  0.50000000  1.0 -0.0975168483
C  C72  1  0.23250000  0.68440000  0.00000000  1.0 -0.0975168483
C  C73  1  0.73250000  0.81560000  0.00000000  1.0 -0.0975168483
C  C74  1  0.73250000  0.31560000  0.50000000  1.0 -0.0975168483
C  C75  1  0.23250000  0.81560000  0.50000000  1.0 -0.0975168483
C  C76  1  0.23250000  0.31560000  0.00000000  1.0 -0.0975168483
C  C77  1  0.26750000  0.81560000  0.00000000  1.0 -0.0975168483
C  C78  1  0.26750000  0.31560000  0.50000000  1.0 -0.0975168483
C  C79  1  0.76750000  0.81560000  0.50000000  1.0 -0.0975168483
C  C80  1  0.76750000  0.31560000  0.00000000  1.0 -0.0975168483
C  C81  1  0.18440000  0.00000000  0.73250000  1.0 -0.0975168483
C  C82  1  0.18440000  0.50000000  0.23250000  1.0 -0.0975168483
C  C83  1  0.68440000  0.00000000  0.23250000  1.0 -0.0975168483
C  C84  1  0.68440000  0.50000000  0.73250000  1.0 -0.0975168483
C  C85  1  0.18440000  0.00000000  0.26750000  1.0 -0.0975168483
C  C86  1  0.18440000  0.50000000  0.76750000  1.0 -0.0975168483
C  C87  1  0.68440000  0.00000000  0.76750000  1.0 -0.0975168483
C  C88  1  0.68440000  0.50000000  0.26750000  1.0 -0.0975168483
C  C89  1  0.81560000  0.00000000  0.26750000  1.0 -0.0975168483
C  C90  1  0.81560000  0.50000000  0.76750000  1.0 -0.0975168483
C  C91  1  0.31560000  0.00000000  0.76750000  1.0 -0.0975168483
C  C92  1  0.31560000  0.50000000  0.26750000  1.0 -0.0975168483
C  C93  1  0.81560000  0.00000000  0.73250000  1.0 -0.0975168483
C  C94  1  0.81560000  0.50000000  0.23250000  1.0 -0.0975168483
C  C95  1  0.31560000  0.00000000  0.23250000  1.0 -0.0975168483
C  C96  1  0.31560000  0.50000000  0.73250000  1.0 -0.0975168483
C  C97  1  0.15360000  0.00000000  0.84640000  1.0 0.6481503919
C  C98  1  0.15360000  0.50000000  0.34640000  1.0 0.6481503919
C  C99  1  0.65360000  0.00000000  0.34640000  1.0 0.6381801218
C  C100  1  0.65360000  0.50000000  0.84640000  1.0 0.6381801218
C  C101  1  0.84640000  0.00000000  0.84640000  1.0 0.6481503919
C  C102  1  0.84640000  0.50000000  0.34640000  1.0 0.6381801218
C  C103  1  0.34640000  0.00000000  0.34640000  1.0 0.6381801218
C  C104  1  0.34640000  0.50000000  0.84640000  1.0 0.6481503919
C  C105  1  0.84640000  0.00000000  0.15360000  1.0 0.6381801218
C  C106  1  0.84640000  0.50000000  0.65360000  1.0 0.6481503919
C  C107  1  0.34640000  0.00000000  0.65360000  1.0 0.6481503919
C  C108  1  0.34640000  0.50000000  0.15360000  1.0 0.6381801218
C  C109  1  0.15360000  0.00000000  0.15360000  1.0 0.6381801218
C  C110  1  0.15360000  0.50000000  0.65360000  1.0 0.6381801218
C  C111  1  0.65360000  0.00000000  0.65360000  1.0 0.6481503919
C  C112  1  0.65360000  0.50000000  0.15360000  1.0 0.6481503919
C  C113  1  0.84640000  0.15360000  0.00000000  1.0 0.6381801218
C  C114  1  0.84640000  0.65360000  0.50000000  1.0 0.6481503919
C  C115  1  0.34640000  0.15360000  0.50000000  1.0 0.6481503919
C  C116  1  0.34640000  0.65360000  0.00000000  1.0 0.6481503919
C  C117  1  0.84640000  0.84640000  0.00000000  1.0 0.6481503919
C  C118  1  0.84640000  0.34640000  0.50000000  1.0 0.6381801218
C  C119  1  0.34640000  0.84640000  0.50000000  1.0 0.6381801218
C  C120  1  0.34640000  0.34640000  0.00000000  1.0 0.6381801218
C  C121  1  0.15360000  0.84640000  0.00000000  1.0 0.6381801218
C  C122  1  0.15360000  0.34640000  0.50000000  1.0 0.6381801218
C  C123  1  0.65360000  0.84640000  0.50000000  1.0 0.6481503919
C  C124  1  0.65360000  0.34640000  0.00000000  1.0 0.6481503919
C  C125  1  0.15360000  0.15360000  0.00000000  1.0 0.6481503919
C  C126  1  0.15360000  0.65360000  0.50000000  1.0 0.6481503919
C  C127  1  0.65360000  0.15360000  0.50000000  1.0 0.6381801218
C  C128  1  0.65360000  0.65360000  0.00000000  1.0 0.6381801218
C  C129  1  0.00000000  0.84640000  0.15360000  1.0 0.6381801218
C  C130  1  0.00000000  0.34640000  0.65360000  1.0 0.6381801218
C  C131  1  0.50000000  0.84640000  0.65360000  1.0 0.6481503919
C  C132  1  0.50000000  0.34640000  0.15360000  1.0 0.6381801218
C  C133  1  0.00000000  0.84640000  0.84640000  1.0 0.6481503919
C  C134  1  0.00000000  0.34640000  0.34640000  1.0 0.6381801218
C  C135  1  0.50000000  0.84640000  0.34640000  1.0 0.6381801218
C  C136  1  0.50000000  0.34640000  0.84640000  1.0 0.6481503919
C  C137  1  0.00000000  0.15360000  0.84640000  1.0 0.6481503919
C  C138  1  0.00000000  0.65360000  0.34640000  1.0 0.6481503919
C  C139  1  0.50000000  0.15360000  0.34640000  1.0 0.6381801218
C  C140  1  0.50000000  0.65360000  0.84640000  1.0 0.6381801218
C  C141  1  0.00000000  0.15360000  0.15360000  1.0 0.6381801218
C  C142  1  0.00000000  0.65360000  0.65360000  1.0 0.6481503919
C  C143  1  0.50000000  0.15360000  0.65360000  1.0 0.6481503919
C  C144  1  0.50000000  0.65360000  0.15360000  1.0 0.6481503919
C  C145  1  0.20500000  0.00000000  0.20500000  1.0 -0.0370390587
C  C146  1  0.20500000  0.50000000  0.70500000  1.0 -0.0370390587
C  C147  1  0.70500000  0.00000000  0.70500000  1.0 -0.0370390587
C  C148  1  0.70500000  0.50000000  0.20500000  1.0 -0.0370390587
C  C149  1  0.79500000  0.00000000  0.20500000  1.0 -0.0370390587
C  C150  1  0.79500000  0.50000000  0.70500000  1.0 -0.0370390587
C  C151  1  0.29500000  0.00000000  0.70500000  1.0 -0.0370390587
C  C152  1  0.29500000  0.50000000  0.20500000  1.0 -0.0370390587
C  C153  1  0.79500000  0.00000000  0.79500000  1.0 -0.0370390587
C  C154  1  0.79500000  0.50000000  0.29500000  1.0 -0.0370390587
C  C155  1  0.29500000  0.00000000  0.29500000  1.0 -0.0370390587
C  C156  1  0.29500000  0.50000000  0.79500000  1.0 -0.0370390587
C  C157  1  0.20500000  0.00000000  0.79500000  1.0 -0.0370390587
C  C158  1  0.20500000  0.50000000  0.29500000  1.0 -0.0370390587
C  C159  1  0.70500000  0.00000000  0.29500000  1.0 -0.0370390587
C  C160  1  0.70500000  0.50000000  0.79500000  1.0 -0.0370390587
C  C161  1  0.20500000  0.20500000  0.00000000  1.0 -0.0370390587
C  C162  1  0.20500000  0.70500000  0.50000000  1.0 -0.0370390587
C  C163  1  0.70500000  0.20500000  0.50000000  1.0 -0.0370390587
C  C164  1  0.70500000  0.70500000  0.00000000  1.0 -0.0370390587
C  C165  1  0.20500000  0.79500000  0.00000000  1.0 -0.0370390587
C  C166  1  0.20500000  0.29500000  0.50000000  1.0 -0.0370390587
C  C167  1  0.70500000  0.79500000  0.50000000  1.0 -0.0370390587
C  C168  1  0.70500000  0.29500000  0.00000000  1.0 -0.0370390587
C  C169  1  0.79500000  0.79500000  0.00000000  1.0 -0.0370390587
C  C170  1  0.79500000  0.29500000  0.50000000  1.0 -0.0370390587
C  C171  1  0.29500000  0.79500000  0.50000000  1.0 -0.0370390587
C  C172  1  0.29500000  0.29500000  0.00000000  1.0 -0.0370390587
C  C173  1  0.79500000  0.20500000  0.00000000  1.0 -0.0370390587
C  C174  1  0.79500000  0.70500000  0.50000000  1.0 -0.0370390587
C  C175  1  0.29500000  0.20500000  0.50000000  1.0 -0.0370390587
C  C176  1  0.29500000  0.70500000  0.00000000  1.0 -0.0370390587
C  C177  1  0.00000000  0.20500000  0.20500000  1.0 -0.0370390587
C  C178  1  0.00000000  0.70500000  0.70500000  1.0 -0.0370390587
C  C179  1  0.50000000  0.20500000  0.70500000  1.0 -0.0370390587
C  C180  1  0.50000000  0.70500000  0.20500000  1.0 -0.0370390587
C  C181  1  0.00000000  0.20500000  0.79500000  1.0 -0.0370390587
C  C182  1  0.00000000  0.70500000  0.29500000  1.0 -0.0370390587
C  C183  1  0.50000000  0.20500000  0.29500000  1.0 -0.0370390587
C  C184  1  0.50000000  0.70500000  0.79500000  1.0 -0.0370390587
C  C185  1  0.00000000  0.79500000  0.79500000  1.0 -0.0370390587
C  C186  1  0.00000000  0.29500000  0.29500000  1.0 -0.0370390587
C  C187  1  0.50000000  0.79500000  0.29500000  1.0 -0.0370390587
C  C188  1  0.50000000  0.29500000  0.79500000  1.0 -0.0370390587
C  C189  1  0.00000000  0.79500000  0.20500000  1.0 -0.0370390587
C  C190  1  0.00000000  0.29500000  0.70500000  1.0 -0.0370390587
C  C191  1  0.50000000  0.79500000  0.70500000  1.0 -0.0370390587
C  C192  1  0.50000000  0.29500000  0.20500000  1.0 -0.0370390587
O  O1  1  0.17047000  0.00000000  0.09530000  1.0 -0.5791081128
O  O2  1  0.17047000  0.50000000  0.59530000  1.0 -0.6163432337
O  O3  1  0.67047000  0.00000000  0.59530000  1.0 -0.6163432337
O  O4  1  0.67047000  0.50000000  0.09530000  1.0 -0.5791081128
O  O5  1  0.82953000  0.00000000  0.09530000  1.0 -0.5791081128
O  O6  1  0.82953000  0.50000000  0.59530000  1.0 -0.5791081128
O  O7  1  0.32953000  0.00000000  0.59530000  1.0 -0.6163432337
O  O8  1  0.32953000  0.50000000  0.09530000  1.0 -0.6163432337
O  O9  1  0.82953000  0.00000000  0.90470000  1.0 -0.6163432337
O  O10  1  0.82953000  0.50000000  0.40470000  1.0 -0.6163432337
O  O11  1  0.32953000  0.00000000  0.40470000  1.0 -0.5791081128
O  O12  1  0.32953000  0.50000000  0.90470000  1.0 -0.5791081128
O  O13  1  0.17047000  0.00000000  0.90470000  1.0 -0.6163432337
O  O14  1  0.17047000  0.50000000  0.40470000  1.0 -0.5791081128
O  O15  1  0.67047000  0.00000000  0.40470000  1.0 -0.5791081128
O  O16  1  0.67047000  0.50000000  0.90470000  1.0 -0.6163432337
O  O17  1  0.09530000  0.17047000  0.00000000  1.0 -0.5791081128
O  O18  1  0.09530000  0.67047000  0.50000000  1.0 -0.6163432337
O  O19  1  0.59530000  0.17047000  0.50000000  1.0 -0.6163432337
O  O20  1  0.59530000  0.67047000  0.00000000  1.0 -0.6163432337
O  O21  1  0.09530000  0.82953000  0.00000000  1.0 -0.6163432337
O  O22  1  0.09530000  0.32953000  0.50000000  1.0 -0.5791081128
O  O23  1  0.59530000  0.82953000  0.50000000  1.0 -0.5791081128
O  O24  1  0.59530000  0.32953000  0.00000000  1.0 -0.5791081128
O  O25  1  0.90470000  0.82953000  0.00000000  1.0 -0.5791081128
O  O26  1  0.90470000  0.32953000  0.50000000  1.0 -0.5791081128
O  O27  1  0.40470000  0.82953000  0.50000000  1.0 -0.6163432337
O  O28  1  0.40470000  0.32953000  0.00000000  1.0 -0.6163432337
O  O29  1  0.90470000  0.17047000  0.00000000  1.0 -0.6163432337
O  O30  1  0.90470000  0.67047000  0.50000000  1.0 -0.6163432337
O  O31  1  0.40470000  0.17047000  0.50000000  1.0 -0.5791081128
O  O32  1  0.40470000  0.67047000  0.00000000  1.0 -0.5791081128
O  O33  1  0.00000000  0.09530000  0.17047000  1.0 -0.5791081128
O  O34  1  0.00000000  0.59530000  0.67047000  1.0 -0.6163432337
O  O35  1  0.50000000  0.09530000  0.67047000  1.0 -0.6163432337
O  O36  1  0.50000000  0.59530000  0.17047000  1.0 -0.5791081128
O  O37  1  0.00000000  0.09530000  0.82953000  1.0 -0.6163432337
O  O38  1  0.00000000  0.59530000  0.32953000  1.0 -0.6163432337
O  O39  1  0.50000000  0.09530000  0.32953000  1.0 -0.5791081128
O  O40  1  0.50000000  0.59530000  0.82953000  1.0 -0.6163432337
O  O41  1  0.00000000  0.90470000  0.82953000  1.0 -0.6163432337
O  O42  1  0.00000000  0.40470000  0.32953000  1.0 -0.5791081128
O  O43  1  0.50000000  0.90470000  0.32953000  1.0 -0.5791081128
O  O44  1  0.50000000  0.40470000  0.82953000  1.0 -0.5791081128
O  O45  1  0.00000000  0.90470000  0.17047000  1.0 -0.5791081128
O  O46  1  0.00000000  0.40470000  0.67047000  1.0 -0.5791081128
O  O47  1  0.50000000  0.90470000  0.67047000  1.0 -0.6163432337
O  O48  1  0.50000000  0.40470000  0.17047000  1.0 -0.6163432337
O  O49  1  0.00000000  0.17047000  0.90470000  1.0 -0.6163432337
O  O50  1  0.00000000  0.67047000  0.40470000  1.0 -0.6163432337
O  O51  1  0.50000000  0.17047000  0.40470000  1.0 -0.5791081128
O  O52  1  0.50000000  0.67047000  0.90470000  1.0 -0.6163432337
O  O53  1  0.00000000  0.82953000  0.90470000  1.0 -0.6163432337
O  O54  1  0.00000000  0.32953000  0.40470000  1.0 -0.5791081128
O  O55  1  0.50000000  0.82953000  0.40470000  1.0 -0.5791081128
O  O56  1  0.50000000  0.32953000  0.90470000  1.0 -0.5791081128
O  O57  1  0.00000000  0.82953000  0.09530000  1.0 -0.5791081128
O  O58  1  0.00000000  0.32953000  0.59530000  1.0 -0.5791081128
O  O59  1  0.50000000  0.82953000  0.59530000  1.0 -0.6163432337
O  O60  1  0.50000000  0.32953000  0.09530000  1.0 -0.6163432337
O  O61  1  0.00000000  0.17047000  0.09530000  1.0 -0.5791081128
O  O62  1  0.00000000  0.67047000  0.59530000  1.0 -0.6163432337
O  O63  1  0.50000000  0.17047000  0.59530000  1.0 -0.6163432337
O  O64  1  0.50000000  0.67047000  0.09530000  1.0 -0.5791081128
O  O65  1  0.17047000  0.09530000  0.00000000  1.0 -0.5791081128
O  O66  1  0.17047000  0.59530000  0.50000000  1.0 -0.6163432337
O  O67  1  0.67047000  0.09530000  0.50000000  1.0 -0.6163432337
O  O68  1  0.67047000  0.59530000  0.00000000  1.0 -0.6163432337
O  O69  1  0.82953000  0.09530000  0.00000000  1.0 -0.6163432337
O  O70  1  0.82953000  0.59530000  0.50000000  1.0 -0.6163432337
O  O71  1  0.32953000  0.09530000  0.50000000  1.0 -0.5791081128
O  O72  1  0.32953000  0.59530000  0.00000000  1.0 -0.5791081128
O  O73  1  0.82953000  0.90470000  0.00000000  1.0 -0.5791081128
O  O74  1  0.82953000  0.40470000  0.50000000  1.0 -0.5791081128
O  O75  1  0.32953000  0.90470000  0.50000000  1.0 -0.6163432337
O  O76  1  0.32953000  0.40470000  0.00000000  1.0 -0.6163432337
O  O77  1  0.17047000  0.90470000  0.00000000  1.0 -0.6163432337
O  O78  1  0.17047000  0.40470000  0.50000000  1.0 -0.5791081128
O  O79  1  0.67047000  0.90470000  0.50000000  1.0 -0.5791081128
O  O80  1  0.67047000  0.40470000  0.00000000  1.0 -0.5791081128
O  O81  1  0.09530000  0.00000000  0.82953000  1.0 -0.6163432337
O  O82  1  0.09530000  0.50000000  0.32953000  1.0 -0.5791081128
O  O83  1  0.59530000  0.00000000  0.32953000  1.0 -0.5791081128
O  O84  1  0.59530000  0.50000000  0.82953000  1.0 -0.6163432337
O  O85  1  0.09530000  0.00000000  0.17047000  1.0 -0.5791081128
O  O86  1  0.09530000  0.50000000  0.67047000  1.0 -0.6163432337
O  O87  1  0.59530000  0.00000000  0.67047000  1.0 -0.6163432337
O  O88  1  0.59530000  0.50000000  0.17047000  1.0 -0.5791081128
O  O89  1  0.90470000  0.00000000  0.17047000  1.0 -0.5791081128
O  O90  1  0.90470000  0.50000000  0.67047000  1.0 -0.5791081128
O  O91  1  0.40470000  0.00000000  0.67047000  1.0 -0.6163432337
O  O92  1  0.40470000  0.50000000  0.17047000  1.0 -0.6163432337
O  O93  1  0.90470000  0.00000000  0.82953000  1.0 -0.6163432337
O  O94  1  0.90470000  0.50000000  0.32953000  1.0 -0.6163432337
O  O95  1  0.40470000  0.00000000  0.32953000  1.0 -0.5791081128
O  O96  1  0.40470000  0.50000000  0.82953000  1.0 -0.5791081128
O  O97  1  0.05610000  0.44390000  0.44390000  1.0 -1.0400397554
O  O98  1  0.55610000  0.94390000  0.44390000  1.0 -1.0400397554
O  O99  1  0.55610000  0.44390000  0.94390000  1.0 -1.1429294124
O  O100  1  0.44390000  0.05610000  0.44390000  1.0 -1.0400397554
O  O101  1  0.44390000  0.55610000  0.94390000  1.0 -1.1429294124
O  O102  1  0.94390000  0.94390000  0.05610000  1.0 -1.0400397554
O  O103  1  0.94390000  0.44390000  0.55610000  1.0 -1.0400397554
O  O104  1  0.05610000  0.05610000  0.05610000  1.0 -1.0400397554
O  O105  1  0.55610000  0.55610000  0.05610000  1.0 -1.1429294124
O  O106  1  0.94390000  0.05610000  0.05610000  1.0 -1.1129591241
O  O107  1  0.94390000  0.55610000  0.55610000  1.0 -1.2310167129
O  O108  1  0.44390000  0.05610000  0.55610000  1.0 -1.2310167129
O  O109  1  0.44390000  0.55610000  0.05610000  1.0 -1.1429294124
O  O110  1  0.05610000  0.94390000  0.05610000  1.0 -1.1129591241
O  O111  1  0.05610000  0.44390000  0.55610000  1.0 -1.1129591241
O  O112  1  0.55610000  0.94390000  0.55610000  1.0 -1.2310167129
O  O113  1  0.55610000  0.44390000  0.05610000  1.0 -1.1429294124
O  O114  1  0.94390000  0.94390000  0.94390000  1.0 -1.2310167129
O  O115  1  0.94390000  0.44390000  0.44390000  1.0 -1.1129591241
O  O116  1  0.44390000  0.94390000  0.44390000  1.0 -1.1129591241
O  O117  1  0.44390000  0.44390000  0.94390000  1.0 -1.1429294124
O  O118  1  0.05610000  0.05610000  0.94390000  1.0 -1.2310167129
O  O119  1  0.05610000  0.55610000  0.44390000  1.0 -1.2310167129
O  O120  1  0.55610000  0.05610000  0.44390000  1.0 -1.1129591241
>>>>>>> 04b52f8f16bcd5c63e8428b2616e7fe32198d02e
