# generated by Guobin Zhao
data_structure
_chemical_formula_sum              "Cu12 H24 C72 O48"
_cell_length_a       18.5698
_cell_length_b       18.5698
_cell_length_c       18.5698
_cell_angle_alpha    60
_cell_angle_beta     60
_cell_angle_gamma    60

_symmetry_space_group_name_H-M    "P 1"
_symmetry_Int_Tables_number       1

loop_
  _symmetry_equiv_pos_as_xyz
  'x, y, z'

loop_
  _atom_site_type_symbol
  _atom_site_label
  _atom_site_symmetry_multiplicity
  _atom_site_fract_x
  _atom_site_fract_y
  _atom_site_fract_z
  _atom_site_occupancy
  _atom_site_charge
Cu  Cu1       1.0  0.43273  0.56727  0.00000  1.0000 0.840830
Cu  Cu2       1.0  0.56727  0.43273  0.00000  1.0000 0.840814
Cu  Cu3       1.0  0.00000  0.00000  0.43273  1.0000 0.840034
Cu  Cu4       1.0  1.00000  0.00000  0.56727  1.0000 0.839814
Cu  Cu5       1.0  0.43273  0.00000  0.00000  1.0000 0.840625
Cu  Cu6       1.0  0.56727  0.00000  0.00000  1.0000 0.840665
Cu  Cu7       1.0  0.00000  0.43273  0.56727  1.0000 0.840971
Cu  Cu8       1.0  0.00000  0.56727  0.43273  1.0000 0.841022
Cu  Cu9       1.0  0.43273  0.00000  0.56727  1.0000 0.840405
Cu  Cu10      1.0  0.56727  0.00000  0.43273  1.0000 0.840549
Cu  Cu11      1.0  0.00000  0.56727  0.00000  1.0000 0.840551
Cu  Cu12      1.0  0.00000  0.43273  0.00000  1.0000 0.840687
H   H1        1.0  0.48820  0.27040  0.97100  1.0000 0.135940
H   H2        1.0  0.27040  0.48820  0.27040  1.0000 0.135960
H   H3        1.0  0.97100  0.27040  0.48820  1.0000 0.135922
H   H4        1.0  0.27040  0.97100  0.27040  1.0000 0.135852
H   H5        1.0  0.48820  0.97100  0.27040  1.0000 0.135830
H   H6        1.0  0.27040  0.27040  0.97100  1.0000 0.135962
H   H7        1.0  0.97100  0.48820  0.27040  1.0000 0.135887
H   H8        1.0  0.27040  0.27040  0.48820  1.0000 0.135989
H   H9        1.0  0.48820  0.27040  0.27040  1.0000 0.135967
H   H10       1.0  0.27040  0.97100  0.48820  1.0000 0.135863
H   H11       1.0  0.97100  0.27040  0.27040  1.0000 0.135917
H   H12       1.0  0.27040  0.48820  0.97100  1.0000 0.135939
H   H13       1.0  0.72960  0.51180  0.02900  1.0000 0.135935
H   H14       1.0  0.51180  0.72960  0.72960  1.0000 0.135951
H   H15       1.0  0.72960  0.02900  0.51180  1.0000 0.135857
H   H16       1.0  0.02900  0.72960  0.72960  1.0000 0.135925
H   H17       1.0  0.02900  0.51180  0.72960  1.0000 0.135883
H   H18       1.0  0.72960  0.72960  0.02900  1.0000 0.135962
H   H19       1.0  0.51180  0.02900  0.72960  1.0000 0.135832
H   H20       1.0  0.72960  0.72960  0.51180  1.0000 0.135968
H   H21       1.0  0.72960  0.51180  0.72960  1.0000 0.135935
H   H22       1.0  0.02900  0.72960  0.51180  1.0000 0.135917
H   H23       1.0  0.72960  0.02900  0.72960  1.0000 0.135858
H   H24       1.0  0.51180  0.72960  0.02900  1.0000 0.135943
C   C1        1.0  0.38629  0.38629  0.97087  1.0000 -0.013570
C   C2        1.0  0.43089  0.43089  0.97585  1.0000 0.592098
C   C3        1.0  0.38629  0.38629  0.25655  1.0000 -0.013564
C   C4        1.0  0.43089  0.43089  0.16237  1.0000 0.592103
C   C5        1.0  0.97087  0.25655  0.38629  1.0000 -0.013434
C   C6        1.0  0.97585  0.16237  0.43089  1.0000 0.591988
C   C7        1.0  0.25655  0.97087  0.38629  1.0000 -0.013492
C   C8        1.0  0.16237  0.97585  0.43089  1.0000 0.591985
C   C9        1.0  0.38629  0.97087  0.25655  1.0000 -0.013670
C   C10       1.0  0.43089  0.97585  0.16237  1.0000 0.592113
C   C11       1.0  0.38629  0.25655  0.97087  1.0000 -0.013506
C   C12       1.0  0.43089  0.16237  0.97585  1.0000 0.592110
C   C13       1.0  0.97087  0.38629  0.38629  1.0000 -0.013628
C   C14       1.0  0.97585  0.43089  0.43089  1.0000 0.592124
C   C15       1.0  0.25655  0.38629  0.38629  1.0000 -0.013500
C   C16       1.0  0.16237  0.43089  0.43089  1.0000 0.592112
C   C17       1.0  0.38629  0.25655  0.38629  1.0000 -0.013452
C   C18       1.0  0.43089  0.16237  0.43089  1.0000 0.592051
C   C19       1.0  0.38629  0.97087  0.38629  1.0000 -0.013627
C   C20       1.0  0.43089  0.97585  0.43089  1.0000 0.592052
C   C21       1.0  0.97087  0.38629  0.25655  1.0000 -0.013600
C   C22       1.0  0.97585  0.43089  0.16237  1.0000 0.592089
C   C23       1.0  0.25655  0.38629  0.97087  1.0000 -0.013490
C   C24       1.0  0.16237  0.43089  0.97585  1.0000 0.592078
C   C25       1.0  0.61371  0.61371  0.02913  1.0000 -0.013569
C   C26       1.0  0.56911  0.56911  0.02415  1.0000 0.592097
C   C27       1.0  0.61371  0.61371  0.74345  1.0000 -0.013581
C   C28       1.0  0.56911  0.56911  0.83763  1.0000 0.592098
C   C29       1.0  0.74345  0.02913  0.61371  1.0000 -0.013495
C   C30       1.0  0.83763  0.02415  0.56911  1.0000 0.591988
C   C31       1.0  0.02913  0.74345  0.61371  1.0000 -0.013439
C   C32       1.0  0.02415  0.83763  0.56911  1.0000 0.591990
C   C33       1.0  0.02913  0.61371  0.74345  1.0000 -0.013601
C   C34       1.0  0.02415  0.56911  0.83763  1.0000 0.592089
C   C35       1.0  0.74345  0.61371  0.02913  1.0000 -0.013488
C   C36       1.0  0.83763  0.56911  0.02415  1.0000 0.592077
C   C37       1.0  0.61371  0.02913  0.61371  1.0000 -0.013622
C   C38       1.0  0.56911  0.02415  0.56911  1.0000 0.592053
C   C39       1.0  0.61371  0.74345  0.61371  1.0000 -0.013468
C   C40       1.0  0.56911  0.83763  0.56911  1.0000 0.592047
C   C41       1.0  0.74345  0.61371  0.61371  1.0000 -0.013509
C   C42       1.0  0.83763  0.56911  0.56911  1.0000 0.592109
C   C43       1.0  0.02913  0.61371  0.61371  1.0000 -0.013624
C   C44       1.0  0.02415  0.56911  0.56911  1.0000 0.592127
C   C45       1.0  0.61371  0.02913  0.74345  1.0000 -0.013676
C   C46       1.0  0.56911  0.02415  0.83763  1.0000 0.592114
C   C47       1.0  0.61371  0.74345  0.02913  1.0000 -0.013507
C   C48       1.0  0.56911  0.83763  0.02415  1.0000 0.592108
C   C49       1.0  0.42909  0.29999  0.97093  1.0000 -0.095880
C   C50       1.0  0.29999  0.42909  0.29999  1.0000 -0.095924
C   C51       1.0  0.97093  0.29999  0.42909  1.0000 -0.095912
C   C52       1.0  0.29999  0.97093  0.29999  1.0000 -0.095949
C   C53       1.0  0.42909  0.97093  0.29999  1.0000 -0.096034
C   C54       1.0  0.29999  0.29999  0.97093  1.0000 -0.095807
C   C55       1.0  0.97093  0.42909  0.29999  1.0000 -0.096023
C   C56       1.0  0.29999  0.29999  0.42909  1.0000 -0.095829
C   C57       1.0  0.42909  0.29999  0.29999  1.0000 -0.095881
C   C58       1.0  0.29999  0.97093  0.42909  1.0000 -0.095915
C   C59       1.0  0.97093  0.29999  0.29999  1.0000 -0.095906
C   C60       1.0  0.29999  0.42909  0.97093  1.0000 -0.095874
C   C61       1.0  0.70001  0.57091  0.02907  1.0000 -0.095877
C   C62       1.0  0.57091  0.70001  0.70001  1.0000 -0.095888
C   C63       1.0  0.70001  0.02907  0.57091  1.0000 -0.095921
C   C64       1.0  0.02907  0.70001  0.70001  1.0000 -0.095895
C   C65       1.0  0.02907  0.57091  0.70001  1.0000 -0.096025
C   C66       1.0  0.70001  0.70001  0.02907  1.0000 -0.095805
C   C67       1.0  0.57091  0.02907  0.70001  1.0000 -0.096031
C   C68       1.0  0.70001  0.70001  0.57091  1.0000 -0.095850
C   C69       1.0  0.70001  0.57091  0.70001  1.0000 -0.095946
C   C70       1.0  0.02907  0.70001  0.57091  1.0000 -0.095917
C   C71       1.0  0.70001  0.02907  0.70001  1.0000 -0.095939
C   C72       1.0  0.57091  0.70001  0.02907  1.0000 -0.095877
O   O1        1.0  0.38762  0.50792  0.97928  1.0000 -0.519266
O   O2        1.0  0.50792  0.38762  0.12518  1.0000 -0.519250
O   O3        1.0  0.97928  0.12518  0.38762  1.0000 -0.519627
O   O4        1.0  0.12518  0.97928  0.50792  1.0000 -0.519595
O   O5        1.0  0.38762  0.97928  0.12518  1.0000 -0.519328
O   O6        1.0  0.50792  0.12518  0.97928  1.0000 -0.519324
O   O7        1.0  0.97928  0.38762  0.50792  1.0000 -0.519385
O   O8        1.0  0.12518  0.50792  0.38762  1.0000 -0.519414
O   O9        1.0  0.38762  0.12518  0.50792  1.0000 -0.519380
O   O10       1.0  0.50792  0.97928  0.38762  1.0000 -0.519531
O   O11       1.0  0.97928  0.50792  0.12518  1.0000 -0.519445
O   O12       1.0  0.12518  0.38762  0.97928  1.0000 -0.519385
O   O13       1.0  0.49208  0.61238  0.02072  1.0000 -0.519264
O   O14       1.0  0.61238  0.49208  0.87482  1.0000 -0.519288
O   O15       1.0  0.87482  0.02072  0.61238  1.0000 -0.519620
O   O16       1.0  0.02072  0.87482  0.49208  1.0000 -0.519650
O   O17       1.0  0.02072  0.61238  0.87482  1.0000 -0.519353
O   O18       1.0  0.87482  0.49208  0.02072  1.0000 -0.519418
O   O19       1.0  0.61238  0.02072  0.49208  1.0000 -0.519459
O   O20       1.0  0.49208  0.87482  0.61238  1.0000 -0.519399
O   O21       1.0  0.87482  0.61238  0.49208  1.0000 -0.519363
O   O22       1.0  0.02072  0.49208  0.61238  1.0000 -0.519457
O   O23       1.0  0.49208  0.02072  0.87482  1.0000 -0.519383
O   O24       1.0  0.61238  0.87482  0.02072  1.0000 -0.519289
O   O25       1.0  0.61238  0.49208  0.02072  1.0000 -0.519268
O   O26       1.0  0.49208  0.61238  0.87482  1.0000 -0.519245
O   O27       1.0  0.02072  0.87482  0.61238  1.0000 -0.519564
O   O28       1.0  0.87482  0.02072  0.49208  1.0000 -0.519669
O   O29       1.0  0.61238  0.02072  0.87482  1.0000 -0.519338
O   O30       1.0  0.49208  0.87482  0.02072  1.0000 -0.519316
O   O31       1.0  0.02072  0.61238  0.49208  1.0000 -0.519388
O   O32       1.0  0.87482  0.49208  0.61238  1.0000 -0.519414
O   O33       1.0  0.61238  0.87482  0.49208  1.0000 -0.519428
O   O34       1.0  0.49208  0.02072  0.61238  1.0000 -0.519490
O   O35       1.0  0.02072  0.49208  0.87482  1.0000 -0.519478
O   O36       1.0  0.87482  0.61238  0.02072  1.0000 -0.519349
O   O37       1.0  0.50792  0.38762  0.97928  1.0000 -0.519267
O   O38       1.0  0.38762  0.50792  0.12518  1.0000 -0.519281
O   O39       1.0  0.12518  0.97928  0.38762  1.0000 -0.519682
O   O40       1.0  0.97928  0.12518  0.50792  1.0000 -0.519579
O   O41       1.0  0.97928  0.38762  0.12518  1.0000 -0.519384
O   O42       1.0  0.12518  0.50792  0.97928  1.0000 -0.519384
O   O43       1.0  0.38762  0.97928  0.50792  1.0000 -0.519415
O   O44       1.0  0.50792  0.12518  0.38762  1.0000 -0.519439
O   O45       1.0  0.12518  0.38762  0.50792  1.0000 -0.519360
O   O46       1.0  0.97928  0.50792  0.38762  1.0000 -0.519458
O   O47       1.0  0.50792  0.97928  0.12518  1.0000 -0.519391
O   O48       1.0  0.38762  0.12518  0.97928  1.0000 -0.519283
